24

C 1.991858 -2.150000 0.000000
C -2.857884 2.050000 0.000000
C -0.433013 2.050000 0.000000
C 0.779423 -1.450000 0.000000
C -1.645448 -0.050000 0.000000
C -1.645448 2.750000 0.000000
C 1.991858 0.650000 0.000000
C -0.433013 0.650000 0.000000
C -2.857884 0.650000 0.000000
C -1.645448 -1.450000 0.000000
C -0.433013 -2.150000 0.000000
C 0.779423 -0.050000 0.000000
C 3.204294 -1.450000 0.000000
C 3.204294 -0.050000 0.000000
H -3.723909 0.150000 0.000000
H 4.070319 0.450000 0.000000
H -0.433013 -3.150000 0.000000
H 4.070319 -1.950000 0.000000
H 1.991858 1.650000 0.000000
H 0.433013 2.550000 0.000000
H -3.723909 2.550000 0.000000
H -2.511474 -1.950000 0.000000
H -1.645448 3.750000 0.000000
H 1.991858 -3.150000 0.000000