42

C -0.839378 2.800000 0.000000
C 1.585493 2.800000 0.000000
C 0.373057 4.900000 0.000000
C -0.839378 -1.400000 0.000000
C -4.476685 0.700000 0.000000
C 0.373057 -0.700000 0.000000
C -0.839378 -2.800000 0.000000
C 2.797928 4.900000 0.000000
C -0.839378 1.400000 0.000000
C 2.797928 -4.900000 0.000000
C 0.373057 3.500000 0.000000
C -3.264250 1.400000 0.000000
C 2.797928 -3.500000 0.000000
C 1.585493 -2.800000 0.000000
C 2.797928 3.500000 0.000000
C 1.585493 5.600000 0.000000
C 1.585493 1.400000 0.000000
C -3.264250 -1.400000 0.000000
C -4.476685 -0.700000 0.000000
C -2.051814 0.700000 0.000000
C 1.585493 -1.400000 0.000000
C -2.051814 -0.700000 0.000000
C 0.373057 0.700000 0.000000
C 0.373057 -3.500000 0.000000
C 1.585493 -5.600000 0.000000
C 0.373057 -4.900000 0.000000
H 1.585493 -6.600000 0.000000
H -3.264250 -2.400000 0.000000
H 1.585493 6.600000 0.000000
H 2.451518 -0.900000 0.000000
H -1.705404 3.300000 0.000000
H -5.342711 1.200000 0.000000
H 2.451518 0.900000 0.000000
H -0.492968 5.400000 0.000000
H -5.342711 -1.200000 0.000000
H -3.264250 2.400000 0.000000
H 3.663954 -3.000000 0.000000
H -1.705404 -3.300000 0.000000
H 3.663954 3.000000 0.000000
H 3.663954 -5.400000 0.000000
H -0.492968 -5.400000 0.000000
H 3.663954 5.400000 0.000000