66

C 6.408588 9.700000 0.000000
C -3.290897 -4.300000 0.000000
C -0.866025 -0.100000 0.000000
C 1.558846 1.300000 0.000000
C 0.346410 3.400000 0.000000
C -3.290897 -2.900000 0.000000
C -0.866025 1.300000 0.000000
C -0.866025 -8.500000 0.000000
C -3.290897 -8.500000 0.000000
C 1.558846 -0.100000 0.000000
C 3.983717 4.100000 0.000000
C -6.928203 -5.000000 0.000000
C -0.866025 -4.300000 0.000000
C -0.866025 -7.100000 0.000000
C -5.715768 -7.100000 0.000000
C -2.078461 -9.200000 0.000000
C 1.558846 4.100000 0.000000
C -0.866025 -2.900000 0.000000
C 0.346410 -0.800000 0.000000
C 3.983717 8.300000 0.000000
C 5.196152 6.200000 0.000000
C 5.196152 7.600000 0.000000
C 3.983717 9.700000 0.000000
C -5.715768 -4.300000 0.000000
C -2.078461 -0.800000 0.000000
C -2.078461 -6.400000 0.000000
C 0.346410 2.000000 0.000000
C 1.558846 5.500000 0.000000
C -2.078461 -5.000000 0.000000
C -3.290897 -7.100000 0.000000
C -4.503332 -5.000000 0.000000
C 2.771281 6.200000 0.000000
C -6.928203 -6.400000 0.000000
C 3.983717 5.500000 0.000000
C -2.078461 -2.200000 0.000000
C 5.196152 10.400000 0.000000
C -4.503332 -6.400000 0.000000
C 6.408588 8.300000 0.000000
C 2.771281 3.400000 0.000000
C 2.771281 7.600000 0.000000
C 2.771281 2.000000 0.000000
C 0.346410 -2.200000 0.000000
H 0.000000 -4.800000 0.000000
H 7.274613 7.800000 0.000000
H 3.637307 1.500000 0.000000
H -0.519615 3.900000 0.000000
H -5.715768 -3.300000 0.000000
H -1.732051 1.800000 0.000000
H 2.424871 -0.600000 0.000000
H -2.944486 -0.300000 0.000000
H -2.078461 -10.200000 0.000000
H 4.849742 3.600000 0.000000
H 0.692820 6.000000 0.000000
H 0.000000 -9.000000 0.000000
H 0.000000 -6.600000 0.000000
H -5.715768 -8.100000 0.000000
H -7.794229 -4.500000 0.000000
H 6.062178 5.700000 0.000000
H 1.905256 8.100000 0.000000
H 1.212436 -2.700000 0.000000
H -4.156922 -9.000000 0.000000
H 3.117691 10.200000 0.000000
H -7.794229 -6.900000 0.000000
H 7.274613 10.200000 0.000000
H -4.156922 -2.400000 0.000000
H 5.196152 11.400000 0.000000