78

C -3.297825 2.464000 0.000000
C 1.551918 -3.136000 0.000000
C -0.872954 1.064000 0.000000
C -0.872954 5.264000 0.000000
C 5.189224 -8.036000 0.000000
C -0.872954 -1.736000 0.000000
C 1.551918 -7.336000 0.000000
C 1.551918 -1.736000 0.000000
C 1.551918 -5.936000 0.000000
C 3.976789 -5.936000 0.000000
C 6.401660 -11.536000 0.000000
C -0.872954 10.864000 0.000000
C -4.510260 3.164000 0.000000
C 0.339482 -1.036000 0.000000
C 2.764353 -3.836000 0.000000
C -6.935131 4.564000 0.000000
C 5.189224 -9.436000 0.000000
C 0.339482 11.564000 0.000000
C 2.764353 -5.236000 0.000000
C -0.872954 9.464000 0.000000
C 5.189224 -12.236000 0.000000
C -2.085389 7.364000 0.000000
C 1.551918 9.464000 0.000000
C -0.872954 -3.136000 0.000000
C -2.085389 3.164000 0.000000
C -4.510260 4.564000 0.000000
C 6.401660 -10.136000 0.000000
C 0.339482 -3.836000 0.000000
C 0.339482 8.764000 0.000000
C -2.085389 4.564000 0.000000
C -2.085389 8.764000 0.000000
C -2.085389 -1.036000 0.000000
C 3.976789 -11.536000 0.000000
C -3.297825 5.264000 0.000000
C 3.976789 -10.136000 0.000000
C -0.872954 2.464000 0.000000
C 2.764353 -8.036000 0.000000
C -2.085389 0.364000 0.000000
C 1.551918 10.864000 0.000000
C 0.339482 -5.236000 0.000000
C -3.297825 6.664000 0.000000
C 0.339482 7.364000 0.000000
C -5.722696 2.464000 0.000000
C -3.297825 1.064000 0.000000
C -5.722696 5.264000 0.000000
C -6.935131 3.164000 0.000000
C 0.339482 0.364000 0.000000
C 2.764353 -9.436000 0.000000
C -0.872954 6.664000 0.000000
C 3.976789 -7.336000 0.000000
H -5.722696 1.464000 0.000000
H 1.205507 0.864000 0.000000
H 7.267685 -12.036000 0.000000
H 2.417943 11.364000 0.000000
H -4.163850 0.564000 0.000000
H 1.205507 6.864000 0.000000
H -7.801157 2.664000 0.000000
H 2.417943 8.964000 0.000000
H 0.685892 -7.836000 0.000000
H 1.898328 -9.936000 0.000000
H -2.951415 -1.536000 0.000000
H -4.163850 7.164000 0.000000
H 3.630378 -3.336000 0.000000
H -7.801157 5.064000 0.000000
H 2.417943 -1.236000 0.000000
H -1.738979 -3.636000 0.000000
H -0.006928 4.764000 0.000000
H -0.006928 2.964000 0.000000
H -0.526543 -5.736000 0.000000
H 4.842814 -5.436000 0.000000
H -5.722696 6.264000 0.000000
H -2.951415 9.264000 0.000000
H 3.110763 -12.036000 0.000000
H 0.339482 12.564000 0.000000
H -1.738979 11.364000 0.000000
H 6.055250 -7.536000 0.000000
H 5.189224 -13.236000 0.000000
H 7.267685 -9.636000 0.000000