48

C 2.384457 6.790000 0.000000
C -1.252850 1.890000 0.000000
C 1.172021 1.890000 0.000000
C -0.040415 3.990000 0.000000
C -1.252850 -2.310000 0.000000
C -4.890157 -0.210000 0.000000
C -0.040415 -1.610000 0.000000
C 3.596892 4.690000 0.000000
C -1.252850 -3.710000 0.000000
C 2.384457 3.990000 0.000000
C -1.252850 0.490000 0.000000
C 1.172021 6.090000 0.000000
C 3.596892 6.090000 0.000000
C 2.384457 -5.810000 0.000000
C -0.040415 2.590000 0.000000
C -3.677721 0.490000 0.000000
C 2.384457 -4.410000 0.000000
C 1.172021 -3.710000 0.000000
C 2.384457 2.590000 0.000000
C 1.172021 4.690000 0.000000
C 1.172021 0.490000 0.000000
C -3.677721 -2.310000 0.000000
C -4.890157 -1.610000 0.000000
C -2.465286 -0.210000 0.000000
C 1.172021 -2.310000 0.000000
C -2.465286 -1.610000 0.000000
C -0.040415 -0.210000 0.000000
C -0.040415 -4.410000 0.000000
C 1.172021 -6.510000 0.000000
C -0.040415 -5.810000 0.000000
H 2.038046 -1.810000 0.000000
H 4.462918 6.590000 0.000000
H 2.384457 7.790000 0.000000
H -5.756182 -2.110000 0.000000
H 3.250482 -6.310000 0.000000
H -3.677721 1.490000 0.000000
H 0.305996 6.590000 0.000000
H -5.756182 0.290000 0.000000
H 1.172021 -7.510000 0.000000
H -0.906440 -6.310000 0.000000
H 3.250482 2.090000 0.000000
H -3.677721 -3.310000 0.000000
H 3.250482 -3.910000 0.000000
H -2.118875 2.390000 0.000000
H 2.038046 -0.010000 0.000000
H 4.462918 4.190000 0.000000
H -2.118875 -4.210000 0.000000
H -0.906440 4.490000 0.000000