54

C -2.139592 -5.105882 0.000000
C 2.710150 7.494118 0.000000
C 0.285279 1.894118 0.000000
C 0.285279 -6.505882 0.000000
C -5.776899 -3.005882 0.000000
C 2.710150 3.294118 0.000000
C -3.352028 -4.405882 0.000000
C -0.927157 -7.205882 0.000000
C 0.285279 -2.305882 0.000000
C -4.564463 -2.305882 0.000000
C -0.927157 1.194118 0.000000
C 3.922586 5.394118 0.000000
C 1.497715 1.194118 0.000000
C -2.139592 -2.305882 0.000000
C -0.927157 -4.405882 0.000000
C 2.710150 6.094118 0.000000
C 2.710150 1.894118 0.000000
C -4.564463 -5.105882 0.000000
C -0.927157 -3.005882 0.000000
C 3.922586 3.994118 0.000000
C -0.927157 -0.205882 0.000000
C -2.139592 -6.505882 0.000000
C 1.497715 5.394118 0.000000
C 5.135021 6.094118 0.000000
C 0.285279 -0.905882 0.000000
C -3.352028 -3.005882 0.000000
C 5.135021 7.494118 0.000000
C 0.285279 -5.105882 0.000000
C -5.776899 -4.405882 0.000000
C 1.497715 3.994118 0.000000
C 0.285279 3.294118 0.000000
C 3.922586 8.194118 0.000000
C -2.139592 -0.905882 0.000000
C 1.497715 -0.205882 0.000000
H 1.151304 -2.805882 0.000000
H 4.788611 3.494118 0.000000
H 0.631689 5.894118 0.000000
H -4.564463 -1.305882 0.000000
H -0.580746 3.794118 0.000000
H 3.576175 1.394118 0.000000
H -1.793182 1.694118 0.000000
H -0.927157 -8.205882 0.000000
H 1.844125 7.994118 0.000000
H 6.001047 5.594118 0.000000
H 1.151304 -7.005882 0.000000
H 1.151304 -4.605882 0.000000
H -4.564463 -6.105882 0.000000
H -6.642924 -2.505882 0.000000
H 2.363740 -0.705882 0.000000
H -3.005618 -7.005882 0.000000
H -6.642924 -4.905882 0.000000
H 6.001047 7.994118 0.000000
H 3.922586 9.194118 0.000000
H -3.005618 -0.405882 0.000000