72

C 0.553503 2.571739 0.000000
C 0.553503 -3.028261 0.000000
C 2.978374 -5.828261 0.000000
C -6.721110 -3.028261 0.000000
C -7.933546 -0.928261 0.000000
C -0.658932 -5.128261 0.000000
C 0.553503 -5.828261 0.000000
C 2.978374 -7.228261 0.000000
C 5.403245 9.571739 0.000000
C 4.190810 4.671739 0.000000
C 6.615681 7.471739 0.000000
C 1.765939 -3.728261 0.000000
C 4.190810 3.271739 0.000000
C 2.978374 1.171739 0.000000
C 1.765939 -7.928261 0.000000
C 2.978374 6.771739 0.000000
C 1.765939 -0.928261 0.000000
C 1.765939 4.671739 0.000000
C 4.190810 7.471739 0.000000
C 2.978374 2.571739 0.000000
C -3.083804 -3.728261 0.000000
C -5.508675 -0.928261 0.000000
C 5.403245 6.771739 0.000000
C 2.978374 5.371739 0.000000
C 1.765939 0.471739 0.000000
C -1.871368 -3.028261 0.000000
C -9.145981 -3.028261 0.000000
C -1.871368 -1.628261 0.000000
C 0.553503 1.171739 0.000000
C 1.765939 -5.128261 0.000000
C 1.765939 3.271739 0.000000
C 6.615681 8.871739 0.000000
C -0.658932 -3.728261 0.000000
C -7.933546 -3.728261 0.000000
C -4.296239 -1.628261 0.000000
C -3.083804 -0.928261 0.000000
C -9.145981 -1.628261 0.000000
C 0.553503 -1.628261 0.000000
C -0.658932 -0.928261 0.000000
C -0.658932 0.471739 0.000000
C 5.403245 5.371739 0.000000
C 4.190810 8.871739 0.000000
C -4.296239 -3.028261 0.000000
C -5.508675 -3.728261 0.000000
C 0.553503 -7.228261 0.000000
C -6.721110 -1.628261 0.000000
H -0.312522 3.071739 0.000000
H -1.524958 0.971739 0.000000
H -3.083804 -4.728261 0.000000
H 2.631964 -1.428261 0.000000
H 2.631964 -3.228261 0.000000
H -3.083804 0.071739 0.000000
H 5.056835 2.771739 0.000000
H -10.012007 -1.128261 0.000000
H 3.844400 -7.728261 0.000000
H -5.508675 0.071739 0.000000
H -10.012007 -3.528261 0.000000
H 6.269271 4.871739 0.000000
H 3.324784 9.371739 0.000000
H 7.481706 9.371739 0.000000
H 5.403245 10.571739 0.000000
H 1.765939 -8.928261 0.000000
H 3.844400 -5.328261 0.000000
H -7.933546 -4.728261 0.000000
H 7.481706 6.971739 0.000000
H 2.112349 7.271739 0.000000
H 3.844400 0.671739 0.000000
H -0.312522 -7.728261 0.000000
H -5.508675 -4.728261 0.000000
H -7.933546 0.071739 0.000000
H -1.524958 -5.628261 0.000000
H 0.899913 5.171739 0.000000