78

C 0.000000 1.708000 0.000000
C 6.062178 10.808000 0.000000
C 0.000000 -3.892000 0.000000
C 2.424871 -6.692000 0.000000
C -7.274613 -3.892000 0.000000
C -8.487049 -1.792000 0.000000
C -1.212436 -5.992000 0.000000
C 0.000000 -6.692000 0.000000
C 2.424871 -8.092000 0.000000
C 4.849742 8.708000 0.000000
C 3.637307 3.808000 0.000000
C 6.062178 6.608000 0.000000
C 1.212436 -4.592000 0.000000
C 3.637307 2.408000 0.000000
C 2.424871 0.308000 0.000000
C 1.212436 -8.792000 0.000000
C 2.424871 5.908000 0.000000
C 1.212436 -1.792000 0.000000
C 1.212436 3.808000 0.000000
C 3.637307 6.608000 0.000000
C 2.424871 1.708000 0.000000
C -3.637307 -4.592000 0.000000
C 7.274613 10.108000 0.000000
C -6.062178 -1.792000 0.000000
C 4.849742 5.908000 0.000000
C 2.424871 4.508000 0.000000
C 1.212436 -0.392000 0.000000
C -2.424871 -3.892000 0.000000
C -9.699485 -3.892000 0.000000
C -2.424871 -2.492000 0.000000
C 0.000000 0.308000 0.000000
C 1.212436 -5.992000 0.000000
C 1.212436 2.408000 0.000000
C 6.062178 8.008000 0.000000
C -1.212436 -4.592000 0.000000
C -8.487049 -4.592000 0.000000
C 4.849742 10.108000 0.000000
C -4.849742 -2.492000 0.000000
C -3.637307 -1.792000 0.000000
C -9.699485 -2.492000 0.000000
C 0.000000 -2.492000 0.000000
C -1.212436 -1.792000 0.000000
C -1.212436 -0.392000 0.000000
C 4.849742 4.508000 0.000000
C 3.637307 8.008000 0.000000
C -4.849742 -3.892000 0.000000
C -6.062178 -4.592000 0.000000
C 0.000000 -8.092000 0.000000
C 7.274613 8.708000 0.000000
C -7.274613 -2.492000 0.000000
H -0.866025 2.208000 0.000000
H 3.983717 10.608000 0.000000
H -2.078461 0.108000 0.000000
H -3.637307 -5.592000 0.000000
H 2.078461 -2.292000 0.000000
H 2.078461 -4.092000 0.000000
H 8.140639 8.208000 0.000000
H 8.140639 10.608000 0.000000
H -3.637307 -0.792000 0.000000
H 4.503332 1.908000 0.000000
H 6.062178 11.808000 0.000000
H -10.565510 -1.992000 0.000000
H 3.290897 -8.592000 0.000000
H -6.062178 -0.792000 0.000000
H -10.565510 -4.392000 0.000000
H 5.715768 4.008000 0.000000
H 2.771281 8.508000 0.000000
H 1.212436 -9.792000 0.000000
H 3.290897 -6.192000 0.000000
H -8.487049 -5.592000 0.000000
H 6.928203 6.108000 0.000000
H 1.558846 6.408000 0.000000
H 3.290897 -0.192000 0.000000
H -0.866025 -8.592000 0.000000
H -6.062178 -5.592000 0.000000
H -8.487049 -0.792000 0.000000
H -2.078461 -6.492000 0.000000
H 0.346410 4.308000 0.000000