72

C 4.428026 6.330435 0.000000
C -8.908766 -2.769565 0.000000
C -4.059023 0.030435 0.000000
C 0.790719 -2.769565 0.000000
C 3.215590 -6.969565 0.000000
C 4.428026 -6.269565 0.000000
C 3.215590 5.630435 0.000000
C -7.696330 -2.069565 0.000000
C 0.790719 0.030435 0.000000
C 2.003154 3.530435 0.000000
C -1.634152 -2.769565 0.000000
C -4.059023 -2.769565 0.000000
C 5.640461 4.230435 0.000000
C 4.428026 7.730435 0.000000
C -8.908766 0.030435 0.000000
C 2.003154 -2.069565 0.000000
C 4.428026 3.530435 0.000000
C 0.790719 1.430435 0.000000
C -6.483895 0.030435 0.000000
C -10.121201 -2.069565 0.000000
C -2.846588 -0.669565 0.000000
C 2.003154 2.130435 0.000000
C 5.640461 5.630435 0.000000
C 6.852897 7.730435 0.000000
C 2.003154 -6.269565 0.000000
C -10.121201 -0.669565 0.000000
C 0.790719 -4.169565 0.000000
C -5.271459 -2.069565 0.000000
C 2.003154 -4.869565 0.000000
C -5.271459 -0.669565 0.000000
C -0.421717 -0.669565 0.000000
C -0.421717 -2.069565 0.000000
C -1.634152 0.030435 0.000000
C 2.003154 -0.669565 0.000000
C 3.215590 -2.769565 0.000000
C 4.428026 2.130435 0.000000
C 4.428026 -4.869565 0.000000
C 3.215590 0.030435 0.000000
C -2.846588 -2.069565 0.000000
C -6.483895 -2.769565 0.000000
C 3.215590 -4.169565 0.000000
C -7.696330 -0.669565 0.000000
C 3.215590 1.430435 0.000000
C 6.852897 6.330435 0.000000
C 5.640461 8.430435 0.000000
C 3.215590 4.230435 0.000000
H -8.908766 -3.769565 0.000000
H -0.075307 -4.669565 0.000000
H -10.987227 -2.569565 0.000000
H -4.059023 1.030435 0.000000
H 5.640461 9.430435 0.000000
H -4.059023 -3.769565 0.000000
H 1.137129 4.030435 0.000000
H 3.562000 8.230435 0.000000
H 1.137129 -6.769565 0.000000
H 3.215590 -7.969565 0.000000
H 2.349565 6.130435 0.000000
H 5.294051 -6.769565 0.000000
H 4.081615 -2.269565 0.000000
H 4.081615 -0.469565 0.000000
H -6.483895 -3.769565 0.000000
H -0.075307 1.930435 0.000000
H -1.634152 -3.769565 0.000000
H 5.294051 1.630435 0.000000
H 5.294051 -4.369565 0.000000
H 7.718922 5.830435 0.000000
H 7.718922 8.230435 0.000000
H -1.634152 1.030435 0.000000
H -6.483895 1.030435 0.000000
H -10.987227 -0.169565 0.000000
H -8.908766 1.030435 0.000000
H 6.506487 3.730435 0.000000