66

C -0.519615 1.400000 0.000000
C -1.732051 0.700000 0.000000
C -5.369358 -1.400000 0.000000
C 4.330127 1.400000 0.000000
C -4.156922 -4.900000 0.000000
C 6.754998 -1.400000 0.000000
C -5.369358 -2.800000 0.000000
C 5.542563 -0.700000 0.000000
C 3.117691 0.700000 0.000000
C -5.369358 1.400000 0.000000
C -6.581793 -4.900000 0.000000
C 0.692820 -0.700000 0.000000
C 5.542563 0.700000 0.000000
C -0.519615 -1.400000 0.000000
C -4.156922 3.500000 0.000000
C -2.944486 -2.800000 0.000000
C -4.156922 -0.700000 0.000000
C -2.944486 -1.400000 0.000000
C -6.581793 4.900000 0.000000
C -5.369358 -5.600000 0.000000
C 6.754998 1.400000 0.000000
C 1.905256 1.400000 0.000000
C 9.179869 1.400000 0.000000
C -1.732051 -0.700000 0.000000
C 3.117691 -0.700000 0.000000
C 9.179869 -1.400000 0.000000
C -5.369358 5.600000 0.000000
C -4.156922 4.900000 0.000000
C 1.905256 -1.400000 0.000000
C 4.330127 -1.400000 0.000000
C -5.369358 2.800000 0.000000
C -2.944486 2.800000 0.000000
C 7.967434 -0.700000 0.000000
C -6.581793 3.500000 0.000000
C 0.692820 0.700000 0.000000
C -4.156922 0.700000 0.000000
C 7.967434 0.700000 0.000000
C 10.392305 0.700000 0.000000
C -6.581793 -3.500000 0.000000
C -2.944486 1.400000 0.000000
C 10.392305 -0.700000 0.000000
C -4.156922 -3.500000 0.000000
H 6.754998 -2.400000 0.000000
H -0.519615 2.400000 0.000000
H -7.447818 -5.400000 0.000000
H 11.258330 1.200000 0.000000
H -3.290897 5.400000 0.000000
H 1.905256 2.400000 0.000000
H -6.235383 -0.900000 0.000000
H -6.235383 0.900000 0.000000
H -0.519615 -2.400000 0.000000
H 9.179869 -2.400000 0.000000
H 4.330127 -2.400000 0.000000
H 4.330127 2.400000 0.000000
H 1.905256 -2.400000 0.000000
H -2.078461 -3.300000 0.000000
H 6.754998 2.400000 0.000000
H 9.179869 2.400000 0.000000
H -7.447818 3.000000 0.000000
H -3.290897 -5.400000 0.000000
H -7.447818 -3.000000 0.000000
H 11.258330 -1.200000 0.000000
H -5.369358 6.600000 0.000000
H -5.369358 -6.600000 0.000000
H -2.078461 3.300000 0.000000
H -7.447818 5.400000 0.000000