78

C -2.667358 1.400000 0.000000
C -3.879794 0.700000 0.000000
C -7.517101 -1.400000 0.000000
C 2.182384 1.400000 0.000000
C 9.456997 -1.400000 0.000000
C -6.304665 -4.900000 0.000000
C 4.607255 -1.400000 0.000000
C 9.456997 1.400000 0.000000
C -7.517101 -2.800000 0.000000
C 10.669433 0.700000 0.000000
C 3.394820 -0.700000 0.000000
C 0.969948 0.700000 0.000000
C 11.881869 -1.400000 0.000000
C -7.517101 1.400000 0.000000
C -8.729536 -4.900000 0.000000
C -1.454923 -0.700000 0.000000
C 3.394820 0.700000 0.000000
C -2.667358 -1.400000 0.000000
C -6.304665 3.500000 0.000000
C -5.092229 -2.800000 0.000000
C -6.304665 -0.700000 0.000000
C -5.092229 -1.400000 0.000000
C -8.729536 4.900000 0.000000
C 11.881869 1.400000 0.000000
C -7.517101 -5.600000 0.000000
C 4.607255 1.400000 0.000000
C 13.094304 0.700000 0.000000
C -0.242487 1.400000 0.000000
C 7.032126 1.400000 0.000000
C -3.879794 -0.700000 0.000000
C 0.969948 -0.700000 0.000000
C 7.032126 -1.400000 0.000000
C -7.517101 5.600000 0.000000
C 10.669433 -0.700000 0.000000
C -6.304665 4.900000 0.000000
C -0.242487 -1.400000 0.000000
C 2.182384 -1.400000 0.000000
C 13.094304 -0.700000 0.000000
C -7.517101 2.800000 0.000000
C -5.092229 2.800000 0.000000
C 5.819691 -0.700000 0.000000
C -8.729536 3.500000 0.000000
C -1.454923 0.700000 0.000000
C -6.304665 0.700000 0.000000
C 5.819691 0.700000 0.000000
C 8.244562 0.700000 0.000000
C -8.729536 -3.500000 0.000000
C -5.092229 1.400000 0.000000
C 8.244562 -0.700000 0.000000
C -6.304665 -3.500000 0.000000
H 4.607255 -2.400000 0.000000
H -2.667358 2.400000 0.000000
H -9.595561 -5.400000 0.000000
H -5.438640 5.400000 0.000000
H 11.881869 2.400000 0.000000
H 13.960330 1.200000 0.000000
H -0.242487 2.400000 0.000000
H 11.881869 -2.400000 0.000000
H -8.383126 -0.900000 0.000000
H -8.383126 0.900000 0.000000
H -2.667358 -2.400000 0.000000
H 7.032126 -2.400000 0.000000
H 2.182384 -2.400000 0.000000
H 2.182384 2.400000 0.000000
H -0.242487 -2.400000 0.000000
H -4.226204 -3.300000 0.000000
H 4.607255 2.400000 0.000000
H 9.456997 -2.400000 0.000000
H 7.032126 2.400000 0.000000
H -9.595561 3.000000 0.000000
H -5.438640 -5.400000 0.000000
H -9.595561 -3.000000 0.000000
H 9.456997 2.400000 0.000000
H -7.517101 -6.600000 0.000000
H -7.517101 6.600000 0.000000
H -4.226204 3.300000 0.000000
H 13.960330 -1.200000 0.000000
H -9.595561 5.400000 0.000000