84

C 3.278067 4.744444 0.000000
C -10.058725 -4.355556 0.000000
C -5.208982 -1.555556 0.000000
C -0.359240 -4.355556 0.000000
C 4.490502 8.244444 0.000000
C 2.065631 -8.555556 0.000000
C 3.278067 -7.855556 0.000000
C 2.065631 4.044444 0.000000
C 6.915373 8.244444 0.000000
C -8.846289 -3.655556 0.000000
C 8.127809 10.344444 0.000000
C 6.915373 6.844444 0.000000
C -0.359240 -1.555556 0.000000
C 0.853195 1.944444 0.000000
C -2.784111 -4.355556 0.000000
C -5.208982 -4.355556 0.000000
C 4.490502 2.644444 0.000000
C 3.278067 6.144444 0.000000
C -10.058725 -1.555556 0.000000
C 0.853195 -3.655556 0.000000
C 3.278067 1.944444 0.000000
C 5.702938 8.944444 0.000000
C -0.359240 -0.155556 0.000000
C -7.633854 -1.555556 0.000000
C -11.271160 -3.655556 0.000000
C -3.996547 -2.255556 0.000000
C 0.853195 0.544444 0.000000
C 4.490502 4.044444 0.000000
C 6.915373 11.044444 0.000000
C 5.702938 6.144444 0.000000
C 8.127809 8.944444 0.000000
C 5.702938 10.344444 0.000000
C 0.853195 -7.855556 0.000000
C -11.271160 -2.255556 0.000000
C -0.359240 -5.755556 0.000000
C -6.421418 -3.655556 0.000000
C 0.853195 -6.455556 0.000000
C -6.421418 -2.255556 0.000000
C -1.571676 -2.255556 0.000000
C -1.571676 -3.655556 0.000000
C -2.784111 -1.555556 0.000000
C 0.853195 -2.255556 0.000000
C 2.065631 -4.355556 0.000000
C 3.278067 0.544444 0.000000
C 3.278067 -6.455556 0.000000
C 2.065631 -1.555556 0.000000
C -3.996547 -3.655556 0.000000
C -7.633854 -4.355556 0.000000
C 2.065631 -5.755556 0.000000
C -8.846289 -2.255556 0.000000
C 2.065631 -0.155556 0.000000
C 5.702938 4.744444 0.000000
C 4.490502 6.844444 0.000000
C 2.065631 2.644444 0.000000
H -10.058725 -5.355556 0.000000
H -1.225266 -6.255556 0.000000
H 8.993834 10.844444 0.000000
H -12.137186 -4.155556 0.000000
H -5.208982 -0.555556 0.000000
H 6.915373 12.044444 0.000000
H -5.208982 -5.355556 0.000000
H 3.624477 8.744444 0.000000
H -0.012830 2.444444 0.000000
H 2.412041 6.644444 0.000000
H -0.012830 -8.355556 0.000000
H 2.065631 -9.555556 0.000000
H 1.199606 4.544444 0.000000
H 4.144092 -8.355556 0.000000
H 8.993834 8.444444 0.000000
H 2.931656 -3.855556 0.000000
H 2.931656 -2.055556 0.000000
H -7.633854 -5.355556 0.000000
H -1.225266 0.344444 0.000000
H -2.784111 -5.355556 0.000000
H 4.144092 0.044444 0.000000
H 4.144092 -5.955556 0.000000
H 4.836912 10.844444 0.000000
H 6.568963 4.244444 0.000000
H -2.784111 -0.555556 0.000000
H -7.633854 -0.555556 0.000000
H 7.781399 6.344444 0.000000
H -10.058725 -0.555556 0.000000
H -12.137186 -1.755556 0.000000
H 5.356527 2.144444 0.000000