66

C -4.849742 1.400000 0.000000
C 1.212436 3.500000 0.000000
C 2.424871 5.600000 0.000000
C -7.274613 1.400000 0.000000
C 4.849742 7.000000 0.000000
C 2.424871 1.400000 0.000000
C 3.637307 -4.900000 0.000000
C 0.000000 -1.400000 0.000000
C 3.637307 -3.500000 0.000000
C 0.000000 2.800000 0.000000
C -2.424871 1.400000 0.000000
C 2.424871 2.800000 0.000000
C 4.849742 -7.000000 0.000000
C 0.000000 1.400000 0.000000
C -6.062178 -0.700000 0.000000
C 2.424871 -2.800000 0.000000
C -4.849742 -1.400000 0.000000
C 1.212436 4.900000 0.000000
C 4.849742 5.600000 0.000000
C 3.637307 3.500000 0.000000
C -2.424871 -1.400000 0.000000
C -1.212436 -0.700000 0.000000
C -3.637307 -0.700000 0.000000
C 2.424871 7.000000 0.000000
C 3.637307 4.900000 0.000000
C 3.637307 7.700000 0.000000
C 4.849742 -5.600000 0.000000
C 1.212436 -3.500000 0.000000
C 1.212436 -4.900000 0.000000
C 1.212436 -0.700000 0.000000
C 2.424871 -1.400000 0.000000
C -8.487049 0.700000 0.000000
C -7.274613 -1.400000 0.000000
C 2.424871 -7.000000 0.000000
C 0.000000 -2.800000 0.000000
C 3.637307 -7.700000 0.000000
C -8.487049 -0.700000 0.000000
C 1.212436 0.700000 0.000000
C -3.637307 0.700000 0.000000
C -6.062178 0.700000 0.000000
C -1.212436 0.700000 0.000000
C 2.424871 -5.600000 0.000000
H 3.290897 -0.900000 0.000000
H 5.715768 7.500000 0.000000
H 3.637307 8.700000 0.000000
H -7.274613 -2.400000 0.000000
H -2.424871 2.400000 0.000000
H 1.558846 7.500000 0.000000
H 5.715768 -7.500000 0.000000
H 1.558846 -7.500000 0.000000
H -7.274613 2.400000 0.000000
H 0.346410 -5.400000 0.000000
H -9.353074 -1.200000 0.000000
H -9.353074 1.200000 0.000000
H 5.715768 -5.100000 0.000000
H 4.503332 3.000000 0.000000
H -2.424871 -2.400000 0.000000
H 4.503332 -3.000000 0.000000
H -0.866025 3.300000 0.000000
H 3.290897 0.900000 0.000000
H 5.715768 5.100000 0.000000
H 3.637307 -8.700000 0.000000
H -4.849742 -2.400000 0.000000
H -0.866025 -3.300000 0.000000
H 0.346410 5.400000 0.000000
H -4.849742 2.400000 0.000000