78

C 0.290985 -2.296000 0.000000
C -9.408500 -0.896000 0.000000
C -0.921451 1.204000 0.000000
C 3.928291 -7.196000 0.000000
C -2.133887 -0.896000 0.000000
C 2.715856 6.104000 0.000000
C 5.140727 10.304000 0.000000
C 6.353162 9.604000 0.000000
C -0.921451 -0.196000 0.000000
C 1.503420 5.404000 0.000000
C 5.140727 7.504000 0.000000
C 3.928291 9.604000 0.000000
C -4.558758 -0.896000 0.000000
C 2.715856 -9.296000 0.000000
C -2.133887 -2.296000 0.000000
C -5.771193 -2.996000 0.000000
C 0.290985 -5.096000 0.000000
C 0.290985 -6.496000 0.000000
C -3.346322 -0.196000 0.000000
C 2.715856 7.504000 0.000000
C 2.715856 3.304000 0.000000
C -0.921451 -4.396000 0.000000
C 3.928291 -8.596000 0.000000
C -8.196064 -0.196000 0.000000
C 6.353162 8.204000 0.000000
C 1.503420 -7.196000 0.000000
C 3.928291 8.204000 0.000000
C -8.196064 -2.996000 0.000000
C 3.928291 5.404000 0.000000
C 3.928291 4.004000 0.000000
C -6.983629 -0.896000 0.000000
C 2.715856 1.904000 0.000000
C 0.290985 -0.896000 0.000000
C 1.503420 1.204000 0.000000
C -3.346322 -2.996000 0.000000
C 1.503420 -2.996000 0.000000
C -4.558758 -2.296000 0.000000
C -6.983629 -2.296000 0.000000
C 5.140727 6.104000 0.000000
C 1.503420 -8.596000 0.000000
C 2.715856 -6.496000 0.000000
C -9.408500 -2.296000 0.000000
C -5.771193 -0.196000 0.000000
C 1.503420 4.004000 0.000000
C 1.503420 -4.396000 0.000000
C -0.921451 -2.996000 0.000000
C 0.290985 1.904000 0.000000
C 1.503420 -0.196000 0.000000
C 0.290985 3.304000 0.000000
C 2.715856 -5.096000 0.000000
H -8.196064 0.804000 0.000000
H 7.219188 7.704000 0.000000
H -0.575041 3.804000 0.000000
H -1.787476 1.704000 0.000000
H -3.346322 -3.996000 0.000000
H -0.575041 -6.996000 0.000000
H -5.771193 0.804000 0.000000
H -10.274525 -0.396000 0.000000
H 4.794317 -6.696000 0.000000
H -8.196064 -3.996000 0.000000
H 3.062266 10.104000 0.000000
H 4.794317 -9.096000 0.000000
H 6.006752 5.604000 0.000000
H 2.715856 -10.296000 0.000000
H -3.346322 0.804000 0.000000
H 2.369446 -0.696000 0.000000
H 3.581881 1.404000 0.000000
H 0.637395 -9.096000 0.000000
H -5.771193 -3.996000 0.000000
H -10.274525 -2.796000 0.000000
H 3.581881 -4.596000 0.000000
H 1.849830 8.004000 0.000000
H 0.637395 5.904000 0.000000
H 4.794317 3.504000 0.000000
H -1.787476 -4.896000 0.000000
H 2.369446 -2.496000 0.000000
H 7.219188 10.104000 0.000000
H 5.140727 11.304000 0.000000