94

C 3.031089 -3.850000 0.000000
C 0.606218 -6.650000 0.000000
C -4.243524 5.950000 0.000000
C 0.606218 8.750000 0.000000
C 1.818653 -5.950000 0.000000
C 3.031089 5.950000 0.000000
C -4.243524 0.350000 0.000000
C -5.455960 -1.750000 0.000000
C -3.031089 -5.950000 0.000000
C 5.455960 1.750000 0.000000
C -1.818653 -2.450000 0.000000
C 3.031089 0.350000 0.000000
C 4.243524 -1.750000 0.000000
C -3.031089 6.650000 0.000000
C -3.031089 -1.750000 0.000000
C -4.243524 -3.850000 0.000000
C -3.031089 2.450000 0.000000
C -1.818653 5.950000 0.000000
C 3.031089 4.550000 0.000000
C -6.668396 1.750000 0.000000
C 5.455960 -3.850000 0.000000
C 4.243524 -5.950000 0.000000
C -3.031089 -0.350000 0.000000
C -5.455960 3.850000 0.000000
C 6.668396 -1.750000 0.000000
C -0.606218 8.050000 0.000000
C -3.031089 -4.550000 0.000000
C 4.243524 -0.350000 0.000000
C 6.668396 -0.350000 0.000000
C 1.818653 -8.750000 0.000000
C -4.243524 4.550000 0.000000
C 3.031089 1.750000 0.000000
C -3.031089 8.050000 0.000000
C 1.818653 2.450000 0.000000
C 3.031089 -6.650000 0.000000
C -0.606218 6.650000 0.000000
C -1.818653 -8.050000 0.000000
C -1.818653 8.750000 0.000000
C 5.455960 -2.450000 0.000000
C 4.243524 3.850000 0.000000
C 1.818653 3.850000 0.000000
C 3.031089 -8.050000 0.000000
C -1.818653 -6.650000 0.000000
C -5.455960 -0.350000 0.000000
C 5.455960 0.350000 0.000000
C -1.818653 -3.850000 0.000000
C -4.243524 -2.450000 0.000000
C -5.455960 2.450000 0.000000
C 0.606218 5.950000 0.000000
C 4.243524 2.450000 0.000000
C 1.818653 8.050000 0.000000
C -4.243524 1.750000 0.000000
C -0.606218 -8.750000 0.000000
C -1.818653 4.550000 0.000000
C 4.243524 -4.550000 0.000000
C -6.668396 0.350000 0.000000
C -0.606218 -5.950000 0.000000
C 3.031089 -2.450000 0.000000
C -0.606218 -4.550000 0.000000
C 0.606218 -8.050000 0.000000
C 1.818653 6.650000 0.000000
C 1.818653 -4.550000 0.000000
C -3.031089 3.850000 0.000000
C 0.606218 4.550000 0.000000
H 2.684679 8.550000 0.000000
H -5.109550 6.450000 0.000000
H -3.897114 -6.450000 0.000000
H -2.165064 1.950000 0.000000
H 7.534421 -2.250000 0.000000
H -6.321985 -2.250000 0.000000
H -0.952628 -1.950000 0.000000
H 0.952628 -4.050000 0.000000
H -0.259808 4.050000 0.000000
H 0.952628 1.950000 0.000000
H 3.897114 -8.550000 0.000000
H -2.684679 -8.550000 0.000000
H -3.897114 8.550000 0.000000
H 2.165064 -1.950000 0.000000
H 0.606218 9.750000 0.000000
H 5.109550 -6.450000 0.000000
H -5.109550 -4.350000 0.000000
H 1.818653 -9.750000 0.000000
H -1.818653 9.750000 0.000000
H -7.534421 2.250000 0.000000
H -0.606218 -9.750000 0.000000
H 6.321985 2.250000 0.000000
H 5.109550 4.350000 0.000000
H -7.534421 -0.150000 0.000000
H -2.165064 0.150000 0.000000
H 3.897114 6.450000 0.000000
H -6.321985 4.350000 0.000000
H 2.165064 -0.150000 0.000000
H 6.321985 -4.350000 0.000000
H 7.534421 0.150000 0.000000