142

C 4.243524 -6.650000 0.000000
C -5.455960 1.750000 0.000000
C 5.455960 -8.750000 0.000000
C 0.606218 -8.750000 0.000000
C -5.455960 4.550000 0.000000
C -3.031089 -6.650000 0.000000
C 0.606218 12.250000 0.000000
C 1.818653 10.150000 0.000000
C -3.031089 12.950000 0.000000
C -0.606218 12.950000 0.000000
C 4.243524 -12.250000 0.000000
C -4.243524 -5.950000 0.000000
C -5.455960 0.350000 0.000000
C -4.243524 10.850000 0.000000
C 5.455960 -10.150000 0.000000
C 9.093267 -3.850000 0.000000
C 0.606218 -12.950000 0.000000
C -1.818653 10.850000 0.000000
C -6.668396 8.050000 0.000000
C -6.668396 -0.350000 0.000000
C 6.668396 -6.650000 0.000000
C -7.880831 5.950000 0.000000
C 1.818653 5.950000 0.000000
C 3.031089 6.650000 0.000000
C -7.880831 1.750000 0.000000
C -3.031089 -3.850000 0.000000
C -5.455960 8.750000 0.000000
C 4.243524 -8.050000 0.000000
C 0.606218 -10.150000 0.000000
C -5.455960 5.950000 0.000000
C 3.031089 8.050000 0.000000
C 1.818653 -12.250000 0.000000
C -9.093267 2.450000 0.000000
C 4.243524 1.750000 0.000000
C 0.606218 6.650000 0.000000
C -0.606218 -10.850000 0.000000
C -7.880831 4.550000 0.000000
C 7.880831 -5.950000 0.000000
C 3.031089 -10.150000 0.000000
C 6.668396 -3.850000 0.000000
C -6.668396 3.850000 0.000000
C -5.455960 10.150000 0.000000
C 1.818653 -10.850000 0.000000
C 5.455960 3.850000 0.000000
C 6.668396 -8.050000 0.000000
C -6.668396 6.650000 0.000000
C -1.818653 -8.750000 0.000000
C 4.243524 5.950000 0.000000
C -5.455960 -3.850000 0.000000
C 6.668396 0.350000 0.000000
C 7.880831 -4.550000 0.000000
C 0.606218 8.050000 0.000000
C 7.880831 -1.750000 0.000000
C -3.031089 10.150000 0.000000
C -6.668396 2.450000 0.000000
C -1.818653 -4.550000 0.000000
C 9.093267 -2.450000 0.000000
C 4.243524 4.550000 0.000000
C 5.455960 -5.950000 0.000000
C 5.455960 -1.750000 0.000000
C 3.031089 -8.750000 0.000000
C -3.031089 -8.050000 0.000000
C -5.455960 -2.450000 0.000000
C -4.243524 -4.550000 0.000000
C 1.818653 4.550000 0.000000
C -6.668396 -1.750000 0.000000
C -3.031089 -2.450000 0.000000
C 1.818653 8.750000 0.000000
C -0.606218 -12.250000 0.000000
C 6.668396 1.750000 0.000000
C -4.243524 6.650000 0.000000
C -0.606218 8.750000 0.000000
C 4.243524 0.350000 0.000000
C -0.606218 10.150000 0.000000
C 0.606218 10.850000 0.000000
C -4.243524 -1.750000 0.000000
C -3.031089 8.750000 0.000000
C -9.093267 3.850000 0.000000
C 6.668396 -2.450000 0.000000
C -7.880831 0.350000 0.000000
C 5.455960 -4.550000 0.000000
C -1.818653 12.250000 0.000000
C -4.243524 12.250000 0.000000
C -0.606218 -6.650000 0.000000
C 3.031089 -12.950000 0.000000
C 3.031089 3.850000 0.000000
C 3.031089 2.450000 0.000000
C -0.606218 -8.050000 0.000000
C -4.243524 8.050000 0.000000
C 5.455960 -0.350000 0.000000
C -1.818653 -5.950000 0.000000
C 7.880831 -0.350000 0.000000
C 4.243524 -10.850000 0.000000
C -1.818653 -10.150000 0.000000
C -4.243524 -0.350000 0.000000
C 5.455960 2.450000 0.000000
H -1.472243 -12.750000 0.000000
H -5.109550 12.750000 0.000000
H -2.165064 -1.950000 0.000000
H -8.746857 6.450000 0.000000
H 3.377499 -0.150000 0.000000
H -0.606218 13.950000 0.000000
H 5.109550 -12.750000 0.000000
H 3.031089 -13.950000 0.000000
H -4.589935 4.050000 0.000000
H 6.321985 4.350000 0.000000
H -0.952628 -4.050000 0.000000
H -9.959292 1.950000 0.000000
H 2.165064 1.950000 0.000000
H -2.165064 8.250000 0.000000
H -3.377499 0.150000 0.000000
H -3.377499 6.150000 0.000000
H 7.534421 -8.550000 0.000000
H 9.959292 -4.350000 0.000000
H 0.259808 -6.150000 0.000000
H 0.606218 -13.950000 0.000000
H 3.377499 -6.150000 0.000000
H -3.897114 -8.550000 0.000000
H 7.534421 2.250000 0.000000
H 5.109550 6.450000 0.000000
H -7.534421 -2.250000 0.000000
H 3.897114 8.550000 0.000000
H 4.589935 -4.050000 0.000000
H -7.534421 8.550000 0.000000
H 6.321985 -10.650000 0.000000
H 8.746857 -6.450000 0.000000
H 4.589935 -2.250000 0.000000
H 9.959292 -1.950000 0.000000
H -8.746857 -0.150000 0.000000
H 0.952628 4.050000 0.000000
H -6.321985 -4.350000 0.000000
H 1.472243 12.750000 0.000000
H -5.109550 -6.450000 0.000000
H 2.165064 -8.250000 0.000000
H -9.959292 4.350000 0.000000
H -6.321985 10.650000 0.000000
H -0.259808 6.150000 0.000000
H -2.684679 -10.650000 0.000000
H 2.684679 10.650000 0.000000
H 8.746857 0.150000 0.000000
H -3.031089 13.950000 0.000000
H -4.589935 2.250000 0.000000