96

C 1.212436 -4.900000 0.000000
C -1.212436 -7.700000 0.000000
C -6.062178 4.900000 0.000000
C -1.212436 7.700000 0.000000
C 7.274613 -1.400000 0.000000
C 0.000000 -7.000000 0.000000
C 6.062178 -0.700000 0.000000
C 1.212436 4.900000 0.000000
C -6.062178 -0.700000 0.000000
C 2.424871 5.600000 0.000000
C 3.637307 0.700000 0.000000
C -3.637307 -3.500000 0.000000
C -1.212436 -3.500000 0.000000
C -4.849742 5.600000 0.000000
C -4.849742 -2.800000 0.000000
C -4.849742 1.400000 0.000000
C -3.637307 4.900000 0.000000
C -1.212436 -4.900000 0.000000
C 1.212436 3.500000 0.000000
C 3.637307 -4.900000 0.000000
C 1.212436 7.700000 0.000000
C 2.424871 -7.000000 0.000000
C 3.637307 -7.700000 0.000000
C -4.849742 -1.400000 0.000000
C 4.849742 -5.600000 0.000000
C 4.849742 -2.800000 0.000000
C -7.274613 2.800000 0.000000
C -2.424871 7.000000 0.000000
C 4.849742 -1.400000 0.000000
C 6.062178 -3.500000 0.000000
C -6.062178 3.500000 0.000000
C -4.849742 7.000000 0.000000
C 6.062178 -4.900000 0.000000
C 4.849742 2.800000 0.000000
C 1.212436 -7.700000 0.000000
C -2.424871 5.600000 0.000000
C -3.637307 7.700000 0.000000
C 3.637307 -3.500000 0.000000
C 2.424871 2.800000 0.000000
C 3.637307 4.900000 0.000000
C 3.637307 3.500000 0.000000
C 3.637307 -0.700000 0.000000
C 6.062178 0.700000 0.000000
C -3.637307 0.700000 0.000000
C 4.849742 -7.000000 0.000000
C -3.637307 -4.900000 0.000000
C -2.424871 -2.800000 0.000000
C -7.274613 1.400000 0.000000
C 4.849742 1.400000 0.000000
C -1.212436 4.900000 0.000000
C 2.424871 1.400000 0.000000
C 0.000000 7.000000 0.000000
C 2.424871 7.000000 0.000000
C -6.062178 0.700000 0.000000
C -3.637307 3.500000 0.000000
C 2.424871 -5.600000 0.000000
C -2.424871 -1.400000 0.000000
C -3.637307 -0.700000 0.000000
C -2.424871 -7.000000 0.000000
C -2.424871 -5.600000 0.000000
C 7.274613 -2.800000 0.000000
C 0.000000 5.600000 0.000000
C 0.000000 -5.600000 0.000000
C -4.849742 2.800000 0.000000
H -8.140639 0.900000 0.000000
H -1.558846 -0.900000 0.000000
H -6.928203 5.400000 0.000000
H 1.212436 -3.900000 0.000000
H 2.771281 -3.000000 0.000000
H 8.140639 -3.300000 0.000000
H 1.558846 0.900000 0.000000
H -2.771281 3.000000 0.000000
H -4.503332 -5.400000 0.000000
H -5.715768 7.500000 0.000000
H 1.212436 8.700000 0.000000
H -0.346410 -3.000000 0.000000
H 6.928203 1.200000 0.000000
H -1.212436 8.700000 0.000000
H 4.503332 5.400000 0.000000
H 0.346410 3.000000 0.000000
H 5.715768 3.300000 0.000000
H -3.637307 8.700000 0.000000
H 2.771281 -1.200000 0.000000
H 6.928203 -5.400000 0.000000
H -6.928203 -1.200000 0.000000
H 3.637307 -8.700000 0.000000
H -1.212436 3.900000 0.000000
H 1.212436 -8.700000 0.000000
H -2.771281 1.200000 0.000000
H 5.715768 -7.500000 0.000000
H -3.290897 -7.500000 0.000000
H 8.140639 -0.900000 0.000000
H -5.715768 -3.300000 0.000000
H 3.290897 7.500000 0.000000
H -1.212436 -8.700000 0.000000
H -8.140639 3.300000 0.000000