132

C -6.062178 -0.700000 0.000000
C -6.062178 -4.900000 0.000000
C -3.637307 7.700000 0.000000
C 0.000000 -9.800000 0.000000
C -4.849742 5.600000 0.000000
C -8.487049 4.900000 0.000000
C 6.062178 -3.500000 0.000000
C 6.062178 0.700000 0.000000
C 4.849742 5.600000 0.000000
C 4.849742 7.000000 0.000000
C 3.637307 4.900000 0.000000
C 7.274613 -2.800000 0.000000
C 6.062178 -4.900000 0.000000
C 6.062178 -7.700000 0.000000
C 6.062178 -9.100000 0.000000
C -2.424871 -9.800000 0.000000
C 7.274613 -7.000000 0.000000
C -7.274613 1.400000 0.000000
C -1.212436 -9.100000 0.000000
C -2.424871 -5.600000 0.000000
C 8.487049 -4.900000 0.000000
C -4.849742 -1.400000 0.000000
C -3.637307 -9.100000 0.000000
C -1.212436 9.100000 0.000000
C 7.274613 2.800000 0.000000
C -9.699485 2.800000 0.000000
C 8.487049 0.700000 0.000000
C -6.062178 4.900000 0.000000
C 0.000000 9.800000 0.000000
C -4.849742 -2.800000 0.000000
C -8.487049 0.700000 0.000000
C -7.274613 7.000000 0.000000
C -7.274613 5.600000 0.000000
C -6.062178 3.500000 0.000000
C -3.637307 -7.700000 0.000000
C -9.699485 1.400000 0.000000
C 9.699485 -2.800000 0.000000
C 6.062178 4.900000 0.000000
C -4.849742 7.000000 0.000000
C -4.849742 -7.000000 0.000000
C 6.062178 3.500000 0.000000
C -4.849742 -5.600000 0.000000
C 1.212436 -9.100000 0.000000
C -2.424871 -7.000000 0.000000
C 1.212436 7.700000 0.000000
C 2.424871 -9.800000 0.000000
C -7.274613 -1.400000 0.000000
C -6.062178 7.700000 0.000000
C -6.062178 9.100000 0.000000
C 3.637307 9.100000 0.000000
C -8.487049 -0.700000 0.000000
C 8.487049 -0.700000 0.000000
C 0.000000 7.000000 0.000000
C -6.062178 0.700000 0.000000
C 3.637307 -9.100000 0.000000
C 7.274613 1.400000 0.000000
C 4.849742 2.800000 0.000000
C 3.637307 -7.700000 0.000000
C 4.849742 1.400000 0.000000
C 0.000000 -7.000000 0.000000
C 4.849742 -5.600000 0.000000
C 2.424871 7.000000 0.000000
C 7.274613 -5.600000 0.000000
C -3.637307 -3.500000 0.000000
C 6.062178 -0.700000 0.000000
C -1.212436 -7.700000 0.000000
C 2.424871 5.600000 0.000000
C -2.424871 7.000000 0.000000
C 1.212436 9.100000 0.000000
C 7.274613 -1.400000 0.000000
C -7.274613 2.800000 0.000000
C -7.274613 -2.800000 0.000000
C 8.487049 -3.500000 0.000000
C 9.699485 -1.400000 0.000000
C 2.424871 9.800000 0.000000
C -1.212436 7.700000 0.000000
C 1.212436 -7.700000 0.000000
C 4.849742 -9.800000 0.000000
C 3.637307 3.500000 0.000000
C 4.849742 -7.000000 0.000000
C -3.637307 -4.900000 0.000000
C -6.062178 -3.500000 0.000000
C 3.637307 7.700000 0.000000
C -2.424871 9.800000 0.000000
C 2.424871 -7.000000 0.000000
C -4.849742 9.800000 0.000000
C -3.637307 9.100000 0.000000
C -8.487049 3.500000 0.000000
H 0.000000 -6.000000 0.000000
H -8.140639 7.500000 0.000000
H 9.353074 1.200000 0.000000
H -10.565510 0.900000 0.000000
H 9.353074 -5.400000 0.000000
H -9.353074 -1.200000 0.000000
H -6.928203 9.600000 0.000000
H -5.196152 1.200000 0.000000
H 6.928203 -9.600000 0.000000
H -2.424871 10.800000 0.000000
H -2.424871 -10.800000 0.000000
H -10.565510 3.300000 0.000000
H -3.983717 -0.900000 0.000000
H 0.000000 -10.800000 0.000000
H 5.196152 -3.000000 0.000000
H 3.983717 -5.100000 0.000000
H 5.715768 7.500000 0.000000
H -4.503332 -9.600000 0.000000
H 3.983717 0.900000 0.000000
H 2.771281 3.000000 0.000000
H 6.928203 5.400000 0.000000
H 2.424871 10.800000 0.000000
H 2.424871 -6.000000 0.000000
H 4.849742 -10.800000 0.000000
H 5.196152 -1.200000 0.000000
H 0.000000 10.800000 0.000000
H -5.715768 -7.500000 0.000000
H 1.558846 5.100000 0.000000
H 2.424871 -10.800000 0.000000
H -6.928203 -5.400000 0.000000
H -2.771281 -3.000000 0.000000
H 10.565510 -3.300000 0.000000
H -9.353074 5.400000 0.000000
H -8.140639 -3.300000 0.000000
H 8.140639 -7.500000 0.000000
H -5.196152 3.000000 0.000000
H 4.503332 9.600000 0.000000
H -2.424871 6.000000 0.000000
H -4.849742 10.800000 0.000000
H -1.558846 -5.100000 0.000000
H 8.140639 3.300000 0.000000
H -3.983717 5.100000 0.000000
H 0.000000 6.000000 0.000000
H 10.565510 -0.900000 0.000000