168

C -10.911920 3.500000 0.000000
C 10.911920 0.700000 0.000000
C 10.911920 -3.500000 0.000000
C -6.062178 -4.900000 0.000000
C -9.699485 -2.800000 0.000000
C -7.274613 7.000000 0.000000
C -2.424871 -11.200000 0.000000
C -8.487049 0.700000 0.000000
C 4.849742 9.800000 0.000000
C 9.699485 -2.800000 0.000000
C 2.424871 -11.200000 0.000000
C -4.849742 -5.600000 0.000000
C 9.699485 -7.000000 0.000000
C -9.699485 1.400000 0.000000
C 2.424871 11.200000 0.000000
C 1.212436 -9.100000 0.000000
C 6.062178 -9.100000 0.000000
C -4.849742 -7.000000 0.000000
C 1.212436 9.100000 0.000000
C 6.062178 9.100000 0.000000
C -8.487049 -4.900000 0.000000
C 2.424871 -9.800000 0.000000
C 8.487049 3.500000 0.000000
C -6.062178 -3.500000 0.000000
C 1.212436 11.900000 0.000000
C 6.062178 7.700000 0.000000
C -9.699485 5.600000 0.000000
C 7.274613 -11.200000 0.000000
C 0.000000 11.200000 0.000000
C 7.274613 -5.600000 0.000000
C -7.274613 5.600000 0.000000
C 7.274613 -9.800000 0.000000
C 7.274613 1.400000 0.000000
C -4.849742 -9.800000 0.000000
C 7.274613 5.600000 0.000000
C 12.124356 -2.800000 0.000000
C 2.424871 9.800000 0.000000
C -3.637307 -11.900000 0.000000
C 0.000000 9.800000 0.000000
C -10.911920 0.700000 0.000000
C -8.487049 -3.500000 0.000000
C -6.062178 -7.700000 0.000000
C 3.637307 -11.900000 0.000000
C 6.062178 -7.700000 0.000000
C 3.637307 9.100000 0.000000
C 8.487049 4.900000 0.000000
C 10.911920 -0.700000 0.000000
C 8.487049 -0.700000 0.000000
C 1.212436 -11.900000 0.000000
C 9.699485 -1.400000 0.000000
C -3.637307 -7.700000 0.000000
C -6.062178 7.700000 0.000000
C 6.062178 4.900000 0.000000
C 6.062178 -11.900000 0.000000
C -4.849742 9.800000 0.000000
C -2.424871 11.200000 0.000000
C 3.637307 -9.100000 0.000000
C 0.000000 -9.800000 0.000000
C -2.424871 -9.800000 0.000000
C -3.637307 -9.100000 0.000000
C -7.274613 9.800000 0.000000
C -8.487049 7.700000 0.000000
C -7.274613 11.200000 0.000000
C -8.487049 3.500000 0.000000
C 9.699485 -5.600000 0.000000
C -3.637307 11.900000 0.000000
C -8.487049 9.100000 0.000000
C -12.124356 2.800000 0.000000
C 6.062178 3.500000 0.000000
C -10.911920 4.900000 0.000000
C 8.487049 0.700000 0.000000
C 4.849742 11.200000 0.000000
C 8.487049 -3.500000 0.000000
C 7.274613 2.800000 0.000000
C -7.274613 -5.600000 0.000000
C -1.212436 11.900000 0.000000
C -7.274613 -7.000000 0.000000
C -3.637307 9.100000 0.000000
C 3.637307 11.900000 0.000000
C 4.849742 -11.200000 0.000000
C 0.000000 -11.200000 0.000000
C -7.274613 -2.800000 0.000000
C -8.487049 4.900000 0.000000
C 4.849742 5.600000 0.000000
C -12.124356 1.400000 0.000000
C -1.212436 9.100000 0.000000
C -1.212436 -9.100000 0.000000
C -9.699485 2.800000 0.000000
C 8.487049 -9.100000 0.000000
C 4.849742 -9.800000 0.000000
C 8.487049 -4.900000 0.000000
C -6.062178 9.100000 0.000000
C 9.699485 2.800000 0.000000
C -6.062178 11.900000 0.000000
C 10.911920 -4.900000 0.000000
C -1.212436 -11.900000 0.000000
C -10.911920 -0.700000 0.000000
C -2.424871 9.800000 0.000000
C -4.849742 11.200000 0.000000
C 12.124356 -1.400000 0.000000
C 9.699485 1.400000 0.000000
C 4.849742 7.000000 0.000000
C -8.487049 -0.700000 0.000000
C -9.699485 7.000000 0.000000
C 8.487049 -7.700000 0.000000
C 7.274613 -7.000000 0.000000
C -4.849742 -11.200000 0.000000
C -6.062178 -9.100000 0.000000
C -9.699485 -1.400000 0.000000
C -7.274613 -1.400000 0.000000
C 7.274613 7.000000 0.000000
C 3.637307 7.700000 0.000000
H -12.990381 3.300000 0.000000
H -10.565510 -3.300000 0.000000
H 10.565510 3.300000 0.000000
H 5.196152 3.000000 0.000000
H 3.637307 -8.100000 0.000000
H -8.140639 -7.500000 0.000000
H -9.353074 9.600000 0.000000
H -10.565510 7.500000 0.000000
H 8.140639 7.500000 0.000000
H 6.408588 -5.100000 0.000000
H 3.983717 5.100000 0.000000
H -1.212436 12.900000 0.000000
H -6.928203 -9.600000 0.000000
H 7.621024 -1.200000 0.000000
H 9.353074 5.400000 0.000000
H 8.140639 -11.700000 0.000000
H -3.637307 12.900000 0.000000
H -6.408588 5.100000 0.000000
H -5.715768 -11.700000 0.000000
H 7.621024 -3.000000 0.000000
H 1.212436 8.100000 0.000000
H -7.621024 3.000000 0.000000
H -1.212436 -12.900000 0.000000
H -12.990381 0.900000 0.000000
H 11.777945 -5.400000 0.000000
H -9.353074 -5.400000 0.000000
H 9.353074 -9.600000 0.000000
H -8.140639 11.700000 0.000000
H -1.212436 -8.100000 0.000000
H 1.212436 -12.900000 0.000000
H 10.565510 -7.500000 0.000000
H 12.990381 -0.900000 0.000000
H 3.637307 -12.900000 0.000000
H 6.408588 0.900000 0.000000
H 2.771281 7.200000 0.000000
H -2.771281 -7.200000 0.000000
H 3.637307 12.900000 0.000000
H -6.062178 12.900000 0.000000
H 6.928203 9.600000 0.000000
H 11.777945 1.200000 0.000000
H 5.196152 -7.200000 0.000000
H -7.621024 1.200000 0.000000
H -11.777945 -1.200000 0.000000
H -5.196152 -3.000000 0.000000
H 5.715768 11.700000 0.000000
H -1.212436 8.100000 0.000000
H -3.637307 8.100000 0.000000
H -3.637307 -12.900000 0.000000
H -3.983717 -5.100000 0.000000
H -5.196152 7.200000 0.000000
H -6.408588 -0.900000 0.000000
H 1.212436 -8.100000 0.000000
H 1.212436 12.900000 0.000000
H 6.062178 -12.900000 0.000000
H 12.990381 -3.300000 0.000000
H -11.777945 5.400000 0.000000