192

C -10.911920 5.600000 0.000000
C 10.911920 -5.600000 0.000000
C 10.911920 2.800000 0.000000
C -6.062178 -9.800000 0.000000
C 10.911920 -1.400000 0.000000
C -9.699485 -0.700000 0.000000
C 12.124356 -4.900000 0.000000
C -7.274613 9.100000 0.000000
C 2.424871 -11.900000 0.000000
C -8.487049 -7.000000 0.000000
C -10.911920 -2.800000 0.000000
C 4.849742 11.900000 0.000000
C -9.699485 -4.900000 0.000000
C -4.849742 -13.300000 0.000000
C 9.699485 -9.100000 0.000000
C 9.699485 -0.700000 0.000000
C -0.000000 -11.900000 0.000000
C 12.124356 -3.500000 0.000000
C 9.699485 -4.900000 0.000000
C -3.637307 -14.000000 0.000000
C -9.699485 3.500000 0.000000
C 9.699485 -7.700000 0.000000
C 2.424871 13.300000 0.000000
C 1.212436 11.200000 0.000000
C 6.062178 11.200000 0.000000
C -8.487049 -2.800000 0.000000
C 3.637307 -14.000000 0.000000
C 8.487049 5.600000 0.000000
C 1.212436 14.000000 0.000000
C 6.062178 9.800000 0.000000
C 7.274613 -9.100000 0.000000
C -1.212436 -11.200000 0.000000
C 1.212436 -11.200000 0.000000
C -9.699485 7.700000 0.000000
C -0.000000 13.300000 0.000000
C -12.124356 0.700000 0.000000
C 7.274613 -7.700000 0.000000
C -7.274613 7.700000 0.000000
C -6.062178 -11.200000 0.000000
C 8.487049 -11.200000 0.000000
C 7.274613 3.500000 0.000000
C -4.849742 -7.700000 0.000000
C 7.274613 7.700000 0.000000
C -1.212436 -14.000000 0.000000
C 12.124356 -0.700000 0.000000
C 2.424871 11.900000 0.000000
C -3.637307 -9.800000 0.000000
C -0.000000 11.900000 0.000000
C -13.336791 2.800000 0.000000
C -0.000000 -13.300000 0.000000
C -3.637307 -11.200000 0.000000
C -10.911920 2.800000 0.000000
C -8.487049 -1.400000 0.000000
C -6.062178 -5.600000 0.000000
C -2.424871 -13.300000 0.000000
C 3.637307 11.200000 0.000000
C 8.487049 7.000000 0.000000
C 3.637307 -11.200000 0.000000
C 13.336791 -2.800000 0.000000
C 10.911920 1.400000 0.000000
C 8.487049 1.400000 0.000000
C -13.336791 1.400000 0.000000
C 9.699485 0.700000 0.000000
C -6.062178 9.800000 0.000000
C 6.062178 7.000000 0.000000
C 7.274613 -13.300000 0.000000
C 6.062178 -9.800000 0.000000
C -4.849742 11.900000 0.000000
C -2.424871 13.300000 0.000000
C 4.849742 -13.300000 0.000000
C 7.274613 -11.900000 0.000000
C 13.336791 -1.400000 0.000000
C -7.274613 -7.700000 0.000000
C -12.124356 -0.700000 0.000000
C -8.487049 -5.600000 0.000000
C 8.487049 -9.800000 0.000000
C -7.274613 11.900000 0.000000
C 1.212436 -14.000000 0.000000
C -8.487049 9.800000 0.000000
C -7.274613 13.300000 0.000000
C -8.487049 5.600000 0.000000
C 9.699485 -3.500000 0.000000
C -7.274613 -9.100000 0.000000
C -3.637307 14.000000 0.000000
C -12.124356 4.900000 0.000000
C -8.487049 11.200000 0.000000
C 6.062178 5.600000 0.000000
C -10.911920 7.000000 0.000000
C -10.911920 -1.400000 0.000000
C 8.487049 2.800000 0.000000
C 4.849742 13.300000 0.000000
C 6.062178 -11.200000 0.000000
C 7.274613 4.900000 0.000000
C -7.274613 -3.500000 0.000000
C -1.212436 14.000000 0.000000
C -7.274613 -4.900000 0.000000
C 2.424871 -13.300000 0.000000
C -3.637307 11.200000 0.000000
C 3.637307 14.000000 0.000000
C -8.487049 7.000000 0.000000
C 4.849742 7.700000 0.000000
C -12.124356 3.500000 0.000000
C -1.212436 11.200000 0.000000
C 10.911920 -7.000000 0.000000
C -9.699485 4.900000 0.000000
C 8.487049 -7.000000 0.000000
C -6.062178 11.200000 0.000000
C 9.699485 4.900000 0.000000
C -6.062178 14.000000 0.000000
C 10.911920 -2.800000 0.000000
C -10.911920 1.400000 0.000000
C -2.424871 11.900000 0.000000
C -9.699485 -3.500000 0.000000
C -4.849742 13.300000 0.000000
C 12.124356 0.700000 0.000000
C 9.699485 3.500000 0.000000
C 4.849742 9.100000 0.000000
C 8.487049 -5.600000 0.000000
C -9.699485 9.100000 0.000000
C -2.424871 -11.900000 0.000000
C 6.062178 -14.000000 0.000000
C -4.849742 -9.100000 0.000000
C -6.062178 -7.000000 0.000000
C -9.699485 0.700000 0.000000
C 7.274613 9.100000 0.000000
C 4.849742 -11.900000 0.000000
C -4.849742 -11.900000 0.000000
C 3.637307 9.800000 0.000000
H -12.990381 5.400000 0.000000
H 7.621024 -5.100000 0.000000
H -6.408588 -3.000000 0.000000
H -8.833459 1.200000 0.000000
H 10.565510 5.400000 0.000000
H 1.212436 -15.000000 0.000000
H 5.196152 5.100000 0.000000
H -10.565510 -5.400000 0.000000
H -12.990381 -1.200000 0.000000
H -14.202817 0.900000 0.000000
H -9.353074 11.700000 0.000000
H -10.565510 9.600000 0.000000
H 8.140639 9.600000 0.000000
H 5.196152 -9.300000 0.000000
H 3.983717 7.200000 0.000000
H -1.212436 15.000000 0.000000
H 7.621024 0.900000 0.000000
H -8.833459 3.000000 0.000000
H -6.928203 -11.700000 0.000000
H 12.990381 -5.400000 0.000000
H 9.353074 7.500000 0.000000
H -2.771281 -9.300000 0.000000
H -6.408588 7.200000 0.000000
H -3.637307 15.000000 0.000000
H 9.353074 -11.700000 0.000000
H 8.833459 -1.200000 0.000000
H -8.140639 -9.600000 0.000000
H 1.212436 10.200000 0.000000
H 14.202817 -0.900000 0.000000
H -7.621024 5.100000 0.000000
H -11.777945 -3.300000 0.000000
H 3.637307 -10.200000 0.000000
H -5.715768 -13.800000 0.000000
H 14.202817 -3.300000 0.000000
H -3.637307 -15.000000 0.000000
H 6.408588 -7.200000 0.000000
H 1.212436 -10.200000 0.000000
H -8.140639 13.800000 0.000000
H -1.212436 -15.000000 0.000000
H -1.212436 -10.200000 0.000000
H 8.833459 -3.000000 0.000000
H 12.990381 1.200000 0.000000
H 6.408588 3.000000 0.000000
H 2.771281 9.300000 0.000000
H 10.565510 -9.600000 0.000000
H 3.637307 -15.000000 0.000000
H 3.637307 15.000000 0.000000
H -6.062178 15.000000 0.000000
H 6.928203 11.700000 0.000000
H 11.777945 3.300000 0.000000
H 8.140639 -13.800000 0.000000
H 5.715768 13.800000 0.000000
H -1.212436 10.200000 0.000000
H -9.353074 -7.500000 0.000000
H -3.637307 10.200000 0.000000
H -14.202817 3.300000 0.000000
H 6.062178 -15.000000 0.000000
H -5.196152 9.300000 0.000000
H -7.621024 -0.900000 0.000000
H -3.983717 -7.200000 0.000000
H 1.212436 15.000000 0.000000
H -5.196152 -5.100000 0.000000
H 11.777945 -7.500000 0.000000
H -11.777945 7.500000 0.000000