180

C -9.093267 4.550000 0.000000
C 12.730573 1.750000 0.000000
C -4.243524 -10.850000 0.000000
C -5.455960 8.050000 0.000000
C -0.606218 -10.150000 0.000000
C -10.305702 -5.950000 0.000000
C 4.243524 -12.950000 0.000000
C -9.093267 -6.650000 0.000000
C -12.730573 -0.350000 0.000000
C -6.668396 -8.050000 0.000000
C -9.093267 -3.850000 0.000000
C 6.668396 10.850000 0.000000
C -7.880831 -5.950000 0.000000
C 11.518138 -1.750000 0.000000
C 1.818653 -12.950000 0.000000
C -6.668396 -10.850000 0.000000
C 4.243524 -10.150000 0.000000
C -7.880831 2.450000 0.000000
C -5.455960 -12.950000 0.000000
C 4.243524 12.250000 0.000000
C 7.880831 -8.050000 0.000000
C 3.031089 10.150000 0.000000
C 7.880831 10.150000 0.000000
C -10.305702 -4.550000 0.000000
C 4.243524 -8.750000 0.000000
C 10.305702 4.550000 0.000000
C 3.031089 12.950000 0.000000
C 7.880831 8.750000 0.000000
C 5.455960 -6.650000 0.000000
C -7.880831 6.650000 0.000000
C 0.606218 -12.250000 0.000000
C 3.031089 -12.250000 0.000000
C 1.818653 12.250000 0.000000
C 9.093267 -4.550000 0.000000
C -10.305702 -0.350000 0.000000
C -5.455960 6.650000 0.000000
C -4.243524 -12.250000 0.000000
C 9.093267 2.450000 0.000000
C 9.093267 6.650000 0.000000
C 4.243524 10.850000 0.000000
C -1.818653 -10.850000 0.000000
C 1.818653 10.850000 0.000000
C -11.518138 1.750000 0.000000
C -1.818653 -12.250000 0.000000
C -6.668396 -12.250000 0.000000
C -9.093267 1.750000 0.000000
C 5.455960 -10.850000 0.000000
C 7.880831 -6.650000 0.000000
C 9.093267 -1.750000 0.000000
C 5.455960 10.150000 0.000000
C 10.305702 5.950000 0.000000
C 5.455960 -12.250000 0.000000
C 12.730573 0.350000 0.000000
C 10.305702 0.350000 0.000000
C 7.880831 -3.850000 0.000000
C 3.031089 -10.850000 0.000000
C -11.518138 0.350000 0.000000
C 11.518138 -0.350000 0.000000
C -11.518138 -2.450000 0.000000
C -4.243524 8.750000 0.000000
C 7.880831 5.950000 0.000000
C -3.031089 10.850000 0.000000
C -0.606218 12.250000 0.000000
C 9.093267 -0.350000 0.000000
C -11.518138 -3.850000 0.000000
C 5.455960 -8.050000 0.000000
C -5.455960 -8.750000 0.000000
C -10.305702 -1.750000 0.000000
C -6.668396 -6.650000 0.000000
C -12.730573 -1.750000 0.000000
C -5.455960 10.850000 0.000000
C -6.668396 8.750000 0.000000
C -5.455960 12.250000 0.000000
C -6.668396 4.550000 0.000000
C -5.455960 -10.150000 0.000000
C -1.818653 12.950000 0.000000
C -10.305702 3.850000 0.000000
C -6.668396 10.150000 0.000000
C 7.880831 4.550000 0.000000
C -7.880831 -8.750000 0.000000
C -9.093267 5.950000 0.000000
C -9.093267 -2.450000 0.000000
C 10.305702 1.750000 0.000000
C 6.668396 12.250000 0.000000
C 10.305702 -2.450000 0.000000
C -7.880831 -10.150000 0.000000
C 9.093267 3.850000 0.000000
C 0.606218 12.950000 0.000000
C -9.093267 -8.050000 0.000000
C -1.818653 10.150000 0.000000
C 5.455960 12.950000 0.000000
C 6.668396 -10.150000 0.000000
C 6.668396 -4.550000 0.000000
C 1.818653 -10.150000 0.000000
C -6.668396 5.950000 0.000000
C 6.668396 6.650000 0.000000
C -10.305702 2.450000 0.000000
C 0.606218 10.150000 0.000000
C 6.668396 -5.950000 0.000000
C -7.880831 3.850000 0.000000
C 6.668396 -8.750000 0.000000
C 10.305702 -3.850000 0.000000
C -4.243524 10.150000 0.000000
C 11.518138 3.850000 0.000000
C -4.243524 12.950000 0.000000
C 0.606218 -10.850000 0.000000
C -9.093267 0.350000 0.000000
C -0.606218 10.850000 0.000000
C -7.880831 -4.550000 0.000000
C -3.031089 12.250000 0.000000
C 11.518138 2.450000 0.000000
C 6.668396 8.050000 0.000000
C -7.880831 8.050000 0.000000
C 9.093267 -5.950000 0.000000
C -0.606218 -12.950000 0.000000
C -3.031089 -10.150000 0.000000
C 9.093267 8.050000 0.000000
C 7.880831 -2.450000 0.000000
C -3.031089 -12.950000 0.000000
C 5.455960 8.750000 0.000000
H -11.171728 4.350000 0.000000
H -5.802370 -6.150000 0.000000
H -5.455960 -13.950000 0.000000
H -0.606218 -9.150000 0.000000
H 12.384163 4.350000 0.000000
H 7.014806 4.050000 0.000000
H 3.377499 -8.250000 0.000000
H -8.746857 -10.650000 0.000000
H -7.534421 10.650000 0.000000
H -8.746857 8.550000 0.000000
H 9.959292 8.550000 0.000000
H 5.802370 6.150000 0.000000
H 0.606218 13.950000 0.000000
H -7.014806 1.950000 0.000000
H 11.171728 6.450000 0.000000
H -1.818653 13.950000 0.000000
H -4.589935 6.150000 0.000000
H -12.384163 -4.350000 0.000000
H 3.031089 9.150000 0.000000
H -5.802370 4.050000 0.000000
H -7.014806 -4.050000 0.000000
H 9.959292 -6.450000 0.000000
H -7.534421 -12.750000 0.000000
H -8.227241 -1.950000 0.000000
H -6.321985 12.750000 0.000000
H 8.227241 1.950000 0.000000
H 11.171728 -4.350000 0.000000
H 4.589935 8.250000 0.000000
H 12.384163 -2.250000 0.000000
H 5.455960 13.950000 0.000000
H -4.243524 13.950000 0.000000
H 8.746857 10.650000 0.000000
H 13.596599 2.250000 0.000000
H -8.227241 -0.150000 0.000000
H 13.596599 -0.150000 0.000000
H 8.227241 0.150000 0.000000
H -3.031089 -13.950000 0.000000
H -13.596599 -2.250000 0.000000
H -11.171728 -6.450000 0.000000
H 5.802370 -4.050000 0.000000
H -9.959292 -8.550000 0.000000
H 7.534421 12.750000 0.000000
H 7.534421 -10.650000 0.000000
H 0.606218 9.150000 0.000000
H 7.014806 -1.950000 0.000000
H -13.596599 0.150000 0.000000
H 1.818653 -13.950000 0.000000
H -1.818653 9.150000 0.000000
H -12.384163 2.250000 0.000000
H 1.818653 -9.150000 0.000000
H -3.377499 8.250000 0.000000
H 4.243524 -13.950000 0.000000
H 6.321985 -12.750000 0.000000
H 3.031089 13.950000 0.000000
H 4.589935 -6.150000 0.000000
H -0.606218 -13.950000 0.000000
H -4.589935 -8.250000 0.000000
H 8.746857 -8.550000 0.000000
H -9.959292 6.450000 0.000000
H -3.031089 -9.150000 0.000000