56

C 2.492229 0.233333 0.000000
C -3.569949 0.933333 0.000000
C -3.569949 2.333333 0.000000
C -1.145078 0.933333 0.000000
C -2.357514 0.233333 0.000000
C 6.129535 -1.866667 0.000000
C 7.341971 0.233333 0.000000
C 9.766842 -1.166667 0.000000
C 9.766842 0.233333 0.000000
C 1.279793 -1.866667 0.000000
C 3.704664 0.933333 0.000000
C -4.782385 3.033333 0.000000
C -7.207256 -1.166667 0.000000
C -2.357514 -1.166667 0.000000
C -3.569949 -1.866667 0.000000
C -4.782385 -1.166667 0.000000
C -7.207256 3.033333 0.000000
C 4.917100 -1.166667 0.000000
C -8.419691 2.333333 0.000000
C -4.782385 0.233333 0.000000
C 0.067358 0.233333 0.000000
C 7.341971 -1.166667 0.000000
C 3.704664 -1.866667 0.000000
C 8.554406 -1.866667 0.000000
C 8.554406 0.933333 0.000000
C -7.207256 0.233333 0.000000
C 2.492229 -1.166667 0.000000
C -5.994820 0.933333 0.000000
C 0.067358 -1.166667 0.000000
C -8.419691 0.933333 0.000000
C -5.994820 -1.866667 0.000000
C 4.917100 0.233333 0.000000
C -1.145078 -1.866667 0.000000
C 6.129535 0.933333 0.000000
C 1.279793 0.933333 0.000000
C -5.994820 2.333333 0.000000
H -9.285717 2.833333 0.000000
H 8.554406 1.933333 0.000000
H 1.279793 1.933333 0.000000
H -5.994820 -2.866667 0.000000
H 3.704664 -2.866667 0.000000
H -7.207256 4.033333 0.000000
H 6.129535 1.933333 0.000000
H -8.073281 -1.666667 0.000000
H -1.145078 1.933333 0.000000
H -2.703924 2.833333 0.000000
H 1.279793 -2.866667 0.000000
H 8.554406 -2.866667 0.000000
H -9.285717 0.433333 0.000000
H -3.569949 -2.866667 0.000000
H 3.704664 1.933333 0.000000
H 10.632867 0.733333 0.000000
H 6.129535 -2.866667 0.000000
H -1.145078 -2.866667 0.000000
H -4.782385 4.033333 0.000000
H 10.632867 -1.666667 0.000000