60

C -3.796838 -0.976316 0.000000
C -3.796838 0.423684 0.000000
C 4.690211 -1.676316 0.000000
C -2.584402 -1.676316 0.000000
C -9.859016 2.523684 0.000000
C 9.539954 1.123684 0.000000
C 7.115082 -1.676316 0.000000
C -2.584402 1.123684 0.000000
C 3.477776 0.423684 0.000000
C -7.434144 -1.676316 0.000000
C -7.434144 2.523684 0.000000
C -6.221709 0.423684 0.000000
C 2.265340 -1.676316 0.000000
C -7.434144 1.123684 0.000000
C 4.690211 1.123684 0.000000
C -1.371967 0.423684 0.000000
C -8.646580 3.223684 0.000000
C -0.159531 -1.676316 0.000000
C 5.902647 0.423684 0.000000
C 7.115082 1.123684 0.000000
C 10.752389 -0.976316 0.000000
C 10.752389 0.423684 0.000000
C 8.327518 0.423684 0.000000
C 5.902647 -0.976316 0.000000
C -8.646580 0.423684 0.000000
C -1.371967 -0.976316 0.000000
C 1.052905 0.423684 0.000000
C 2.265340 1.123684 0.000000
C -5.009273 -1.676316 0.000000
C 9.539954 -1.676316 0.000000
C -9.859016 1.123684 0.000000
C -5.009273 1.123684 0.000000
C -8.646580 -0.976316 0.000000
C 3.477776 -0.976316 0.000000
C -6.221709 -0.976316 0.000000
C 8.327518 -0.976316 0.000000
C -0.159531 1.123684 0.000000
C 1.052905 -0.976316 0.000000
H -0.159531 -2.676316 0.000000
H 11.618414 -1.476316 0.000000
H -7.434144 -2.676316 0.000000
H 11.618414 0.923684 0.000000
H -2.584402 -2.676316 0.000000
H -0.159531 2.123684 0.000000
H 4.690211 -2.676316 0.000000
H -5.009273 2.123684 0.000000
H 4.690211 2.123684 0.000000
H 7.115082 -2.676316 0.000000
H 2.265340 2.123684 0.000000
H 7.115082 2.123684 0.000000
H -2.584402 2.123684 0.000000
H 9.539954 2.123684 0.000000
H -8.646580 4.223684 0.000000
H -10.725041 0.623684 0.000000
H 2.265340 -2.676316 0.000000
H -6.568119 3.023684 0.000000
H -9.512605 -1.476316 0.000000
H -5.009273 -2.676316 0.000000
H 9.539954 -2.676316 0.000000
H -10.725041 3.023684 0.000000