42

C 2.191710 -1.103846 0.000000
C -3.870467 -1.803846 0.000000
C -3.870467 2.396154 0.000000
C -6.295339 0.996154 0.000000
C 0.979275 0.996154 0.000000
C 4.616582 0.296154 0.000000
C 0.979275 -1.803846 0.000000
C -6.295339 2.396154 0.000000
C -2.658032 -1.103846 0.000000
C 5.829017 0.996154 0.000000
C -1.445596 -1.803846 0.000000
C -0.233161 0.296154 0.000000
C 2.191710 0.296154 0.000000
C -1.445596 0.996154 0.000000
C 4.616582 -1.103846 0.000000
C -3.870467 0.996154 0.000000
C 3.404146 -1.803846 0.000000
C 7.041453 -1.103846 0.000000
C -2.658032 0.296154 0.000000
C -5.082903 3.096154 0.000000
C 5.829017 -1.803846 0.000000
C -5.082903 0.296154 0.000000
C -5.082903 -1.103846 0.000000
C 3.404146 0.996154 0.000000
C -0.233161 -1.103846 0.000000
C 7.041453 0.296154 0.000000
H 0.979275 -2.803846 0.000000
H 7.907478 0.796154 0.000000
H -3.870467 -2.803846 0.000000
H -7.161364 0.496154 0.000000
H 5.829017 1.996154 0.000000
H -1.445596 1.996154 0.000000
H 7.907478 -1.603846 0.000000
H -5.082903 4.096154 0.000000
H -1.445596 -2.803846 0.000000
H 5.829017 -2.803846 0.000000
H 0.979275 1.996154 0.000000
H -5.948928 -1.603846 0.000000
H 3.404146 -2.803846 0.000000
H 3.404146 1.996154 0.000000
H -3.004442 2.896154 0.000000
H -7.161364 2.896154 0.000000