62

C -5.940934 3.080000 0.000000
C 2.546115 -1.820000 0.000000
C -7.153370 0.980000 0.000000
C -4.728499 2.380000 0.000000
C -4.728499 -1.820000 0.000000
C 11.033164 0.280000 0.000000
C -9.578241 0.980000 0.000000
C 3.758550 0.280000 0.000000
C 7.395857 0.980000 0.000000
C -1.091192 -1.120000 0.000000
C -7.153370 -1.820000 0.000000
C -3.516063 -1.120000 0.000000
C 6.183421 -1.120000 0.000000
C -4.728499 0.980000 0.000000
C -5.940934 0.280000 0.000000
C 3.758550 -1.120000 0.000000
C -8.365805 -1.120000 0.000000
C 0.121244 0.980000 0.000000
C 8.608293 0.280000 0.000000
C -7.153370 2.380000 0.000000
C 7.395857 -1.820000 0.000000
C -3.516063 0.280000 0.000000
C -5.940934 -1.120000 0.000000
C 8.608293 -1.120000 0.000000
C -1.091192 0.280000 0.000000
C 11.033164 -1.120000 0.000000
C 6.183421 0.280000 0.000000
C 4.970986 0.980000 0.000000
C 1.333679 0.280000 0.000000
C 4.970986 -1.820000 0.000000
C -9.578241 2.380000 0.000000
C 9.820728 0.980000 0.000000
C 1.333679 -1.120000 0.000000
C -2.303628 0.980000 0.000000
C 2.546115 0.980000 0.000000
C 9.820728 -1.820000 0.000000
C 0.121244 -1.820000 0.000000
C -8.365805 3.080000 0.000000
C -8.365805 0.280000 0.000000
C -2.303628 -1.820000 0.000000
H 11.899189 0.780000 0.000000
H -10.444266 2.880000 0.000000
H 0.121244 1.980000 0.000000
H 7.395857 1.980000 0.000000
H -7.153370 -2.820000 0.000000
H 2.546115 -2.820000 0.000000
H -8.365805 4.080000 0.000000
H 4.970986 1.980000 0.000000
H -9.231831 -1.620000 0.000000
H -2.303628 1.980000 0.000000
H -3.862473 2.880000 0.000000
H 9.820728 1.980000 0.000000
H 7.395857 -2.820000 0.000000
H 0.121244 -2.820000 0.000000
H -10.444266 0.480000 0.000000
H -4.728499 -2.820000 0.000000
H 2.546115 1.980000 0.000000
H 9.820728 -2.820000 0.000000
H 4.970986 -2.820000 0.000000
H -2.303628 -2.820000 0.000000
H -5.940934 4.080000 0.000000
H 11.899189 -1.620000 0.000000