30

C 4.512955 -1.283333 0.000000
C -1.549223 -1.983333 0.000000
C -1.549223 2.216667 0.000000
C -3.974094 0.816667 0.000000
C 3.300519 0.816667 0.000000
C 3.300519 -1.983333 0.000000
C -3.974094 2.216667 0.000000
C -0.336788 -1.283333 0.000000
C 0.875648 -1.983333 0.000000
C 2.088083 0.116667 0.000000
C 4.512955 0.116667 0.000000
C 0.875648 0.816667 0.000000
C -1.549223 0.816667 0.000000
C -0.336788 0.116667 0.000000
C -2.761659 2.916667 0.000000
C -2.761659 0.116667 0.000000
C -2.761659 -1.283333 0.000000
C 2.088083 -1.283333 0.000000
H 3.300519 -2.983333 0.000000
H 5.378980 -1.783333 0.000000
H -1.549223 -2.983333 0.000000
H -4.840120 0.316667 0.000000
H 5.378980 0.616667 0.000000
H 0.875648 1.816667 0.000000
H -2.761659 3.916667 0.000000
H 0.875648 -2.983333 0.000000
H 3.300519 1.816667 0.000000
H -3.627684 -1.783333 0.000000
H -0.683198 2.716667 0.000000
H -4.840120 2.716667 0.000000