61

C -5.668136 -2.292500 0.000000
C -4.455701 -0.192500 0.000000
C -5.668136 1.907500 0.000000
C -6.880572 2.607500 0.000000
C -2.030830 2.607500 0.000000
C -0.818394 -2.292500 0.000000
C 7.668655 -0.192500 0.000000
C -4.455701 4.007500 0.000000
C -3.243265 -2.292500 0.000000
C 1.606477 0.507500 0.000000
C -3.243265 1.907500 0.000000
C -3.243265 0.507500 0.000000
C 0.394042 -1.592500 0.000000
C 7.668655 -1.592500 0.000000
C -4.455701 2.607500 0.000000
C 10.093526 -0.192500 0.000000
C -2.030830 -0.192500 0.000000
C 0.394042 -0.192500 0.000000
C -0.818394 0.507500 0.000000
C 10.093526 -1.592500 0.000000
C 2.818913 -1.592500 0.000000
C 4.031348 0.507500 0.000000
C 4.031348 -2.292500 0.000000
C -2.030830 4.007500 0.000000
C -8.093007 0.507500 0.000000
C 8.881091 0.507500 0.000000
C 5.243784 -1.592500 0.000000
C -6.880572 -1.592500 0.000000
C -3.243265 4.707500 0.000000
C -6.880572 -0.192500 0.000000
C 8.881091 -2.292500 0.000000
C -5.668136 0.507500 0.000000
C 6.456219 0.507500 0.000000
C -2.030830 -1.592500 0.000000
C -8.093007 1.907500 0.000000
C 1.606477 -2.292500 0.000000
C 5.243784 -0.192500 0.000000
C 6.456219 -2.292500 0.000000
C -4.455701 -1.592500 0.000000
C 2.818913 -0.192500 0.000000
H -7.746597 -2.092500 0.000000
H -8.959033 2.407500 0.000000
H 6.456219 -3.292500 0.000000
H 10.959551 0.307500 0.000000
H 1.606477 -3.292500 0.000000
H 4.031348 -3.292500 0.000000
H -1.164804 4.507500 0.000000
H 8.881091 -3.292500 0.000000
H -5.668136 -3.292500 0.000000
H -3.243265 5.707500 0.000000
H -3.243265 -3.292500 0.000000
H 10.959551 -2.092500 0.000000
H 8.881091 1.507500 0.000000
H -6.880572 3.607500 0.000000
H 1.606477 1.507500 0.000000
H 4.031348 1.507500 0.000000
H -0.818394 -3.292500 0.000000
H -0.818394 1.507500 0.000000
H -5.321726 4.507500 0.000000
H -8.959033 0.007500 0.000000
H 6.456219 1.507500 0.000000