67

C -6.751062 -2.211364 0.000000
C -5.538626 -0.111364 0.000000
C -6.751062 1.988636 0.000000
C -7.963497 2.688636 0.000000
C -3.113755 2.688636 0.000000
C -1.901319 -2.211364 0.000000
C 6.585730 -0.111364 0.000000
C -5.538626 4.088636 0.000000
C 10.223036 0.588636 0.000000
C -4.326191 -2.211364 0.000000
C 0.523552 0.588636 0.000000
C -4.326191 1.988636 0.000000
C -4.326191 0.588636 0.000000
C -0.688884 -1.511364 0.000000
C 6.585730 -1.511364 0.000000
C 10.223036 -2.211364 0.000000
C -5.538626 2.688636 0.000000
C 9.010601 -0.111364 0.000000
C -3.113755 -0.111364 0.000000
C -0.688884 -0.111364 0.000000
C -1.901319 0.588636 0.000000
C 9.010601 -1.511364 0.000000
C 1.735987 -1.511364 0.000000
C 2.948423 0.588636 0.000000
C 2.948423 -2.211364 0.000000
C -3.113755 4.088636 0.000000
C -9.175933 0.588636 0.000000
C 7.798165 0.588636 0.000000
C 4.160858 -1.511364 0.000000
C -7.963497 -1.511364 0.000000
C -4.326191 4.788636 0.000000
C -7.963497 -0.111364 0.000000
C 7.798165 -2.211364 0.000000
C -6.751062 0.588636 0.000000
C 5.373294 0.588636 0.000000
C -3.113755 -1.511364 0.000000
C -9.175933 1.988636 0.000000
C 0.523552 -2.211364 0.000000
C 4.160858 -0.111364 0.000000
C 5.373294 -2.211364 0.000000
C 11.435472 -1.511364 0.000000
C -5.538626 -1.511364 0.000000
C 1.735987 -0.111364 0.000000
C 11.435472 -0.111364 0.000000
H -8.829523 -2.011364 0.000000
H -10.041958 2.488636 0.000000
H 5.373294 -3.211364 0.000000
H 0.523552 -3.211364 0.000000
H 2.948423 -3.211364 0.000000
H -2.247730 4.588636 0.000000
H 7.798165 -3.211364 0.000000
H 12.301497 -2.011364 0.000000
H -6.751062 -3.211364 0.000000
H -4.326191 5.788636 0.000000
H -4.326191 -3.211364 0.000000
H 10.223036 1.588636 0.000000
H 10.223036 -3.211364 0.000000
H 7.798165 1.588636 0.000000
H 12.301497 0.388636 0.000000
H -7.963497 3.688636 0.000000
H 0.523552 1.588636 0.000000
H 2.948423 1.588636 0.000000
H -1.901319 -3.211364 0.000000
H -1.901319 1.588636 0.000000
H -6.404652 4.588636 0.000000
H -10.041958 0.088636 0.000000
H 5.373294 1.588636 0.000000