49

C 0.037889 -0.415625 0.000000
C 6.100066 -2.515625 0.000000
C 0.037889 2.384375 0.000000
C 4.887631 -1.815625 0.000000
C 3.675195 0.284375 0.000000
C 0.037889 3.784375 0.000000
C -2.386983 2.384375 0.000000
C 1.250324 -2.515625 0.000000
C -3.599418 1.684375 0.000000
C -4.811854 2.384375 0.000000
C -1.174547 0.284375 0.000000
C -6.024289 0.284375 0.000000
C -1.174547 -2.515625 0.000000
C -3.599418 -2.515625 0.000000
C -2.386983 -0.415625 0.000000
C -4.811854 -0.415625 0.000000
C -2.386983 -1.815625 0.000000
C 6.100066 0.284375 0.000000
C 4.887631 -0.415625 0.000000
C 7.312502 -0.415625 0.000000
C -3.599418 0.284375 0.000000
C 3.675195 -2.515625 0.000000
C 2.462760 -1.815625 0.000000
C 2.462760 -0.415625 0.000000
C -6.024289 1.684375 0.000000
C -2.386983 3.784375 0.000000
C -1.174547 1.684375 0.000000
C -4.811854 -1.815625 0.000000
C 1.250324 0.284375 0.000000
C 7.312502 -1.815625 0.000000
C 0.037889 -1.815625 0.000000
C -1.174547 4.484375 0.000000
H 6.100066 -3.515625 0.000000
H 3.675195 1.284375 0.000000
H 0.903914 4.284375 0.000000
H 6.100066 1.284375 0.000000
H 1.250324 1.284375 0.000000
H 1.250324 -3.515625 0.000000
H -5.677879 -2.315625 0.000000
H 8.178527 -2.315625 0.000000
H 3.675195 -3.515625 0.000000
H -1.174547 -3.515625 0.000000
H 8.178527 0.084375 0.000000
H -4.811854 3.384375 0.000000
H -6.890315 -0.215625 0.000000
H -6.890315 2.184375 0.000000
H -3.253008 4.284375 0.000000
H -1.174547 5.484375 0.000000
H -3.599418 -3.515625 0.000000