38

C 1.566063 -0.087500 0.000000
C 1.566063 1.312500 0.000000
C 3.990934 -0.087500 0.000000
C 2.778498 -0.787500 0.000000
C -4.496115 2.012500 0.000000
C -3.283680 4.112500 0.000000
C -2.071244 3.412500 0.000000
C 0.353627 2.012500 0.000000
C -2.071244 -2.187500 0.000000
C -4.496115 3.412500 0.000000
C 2.778498 -2.187500 0.000000
C 1.566063 -2.887500 0.000000
C 0.353627 -2.187500 0.000000
C -2.071244 2.012500 0.000000
C -3.283680 1.312500 0.000000
C 0.353627 -0.787500 0.000000
C 5.203369 -0.787500 0.000000
C -2.071244 -0.787500 0.000000
C -0.858809 -0.087500 0.000000
C 5.203369 -2.187500 0.000000
C -3.283680 -0.087500 0.000000
C -0.858809 -2.887500 0.000000
C 3.990934 -2.887500 0.000000
C -0.858809 1.312500 0.000000
H 6.069395 -0.287500 0.000000
H -5.362141 1.512500 0.000000
H 3.990934 0.912500 0.000000
H 1.566063 -3.887500 0.000000
H 6.069395 -2.687500 0.000000
H -4.149705 -0.587500 0.000000
H 0.353627 3.012500 0.000000
H 3.990934 -3.887500 0.000000
H 2.432088 1.812500 0.000000
H -1.205219 3.912500 0.000000
H -0.858809 -3.887500 0.000000
H -5.362141 3.912500 0.000000
H -3.283680 5.112500 0.000000
H -2.937269 -2.687500 0.000000