62

C -3.910105 2.607500 0.000000
C -8.759847 4.007500 0.000000
C 4.576944 -2.292500 0.000000
C -5.122540 0.507500 0.000000
C -2.697669 1.907500 0.000000
C -2.697669 -2.292500 0.000000
C -8.759847 2.607500 0.000000
C -7.547411 0.507500 0.000000
C 5.789380 -0.192500 0.000000
C 9.426687 0.507500 0.000000
C 0.939638 -1.592500 0.000000
C -5.122540 -2.292500 0.000000
C -1.485234 -1.592500 0.000000
C 8.214251 -1.592500 0.000000
C -2.697669 0.507500 0.000000
C -3.910105 -0.192500 0.000000
C 5.789380 -1.592500 0.000000
C -7.547411 4.707500 0.000000
C -6.334976 4.007500 0.000000
C -6.334976 -1.592500 0.000000
C 2.152073 0.507500 0.000000
C 10.639122 -0.192500 0.000000
C -5.122540 1.907500 0.000000
C 9.426687 -2.292500 0.000000
C -1.485234 -0.192500 0.000000
C -3.910105 -1.592500 0.000000
C 0.939638 -0.192500 0.000000
C 10.639122 -1.592500 0.000000
C 8.214251 -0.192500 0.000000
C 7.001815 0.507500 0.000000
C 3.364509 -0.192500 0.000000
C 7.001815 -2.292500 0.000000
C -7.547411 1.907500 0.000000
C 3.364509 -1.592500 0.000000
C -0.272798 0.507500 0.000000
C 4.576944 0.507500 0.000000
C 2.152073 -2.292500 0.000000
C -6.334976 2.607500 0.000000
C -6.334976 -0.192500 0.000000
C -0.272798 -2.292500 0.000000
H -7.547411 5.707500 0.000000
H 2.152073 1.507500 0.000000
H 9.426687 1.507500 0.000000
H -5.122540 -3.292500 0.000000
H 4.576944 -3.292500 0.000000
H 7.001815 1.507500 0.000000
H -7.201001 -2.092500 0.000000
H -0.272798 1.507500 0.000000
H -1.831644 2.407500 0.000000
H 9.426687 -3.292500 0.000000
H 2.152073 -3.292500 0.000000
H -8.413437 0.007500 0.000000
H -2.697669 -3.292500 0.000000
H -9.625872 4.507500 0.000000
H 4.576944 1.507500 0.000000
H -5.468950 4.507500 0.000000
H 11.505147 0.307500 0.000000
H 7.001815 -3.292500 0.000000
H -0.272798 -3.292500 0.000000
H -3.910105 3.607500 0.000000
H -9.625872 2.107500 0.000000
H 11.505147 -2.092500 0.000000