66

C -4.904853 -2.640909 0.000000
C -3.692417 -0.540909 0.000000
C -4.904853 1.559091 0.000000
C -6.117289 2.259091 0.000000
C -1.267546 2.259091 0.000000
C -0.055111 -2.640909 0.000000
C 8.431938 -0.540909 0.000000
C -3.692417 3.659091 0.000000
C -2.479982 -2.640909 0.000000
C 2.369760 0.159091 0.000000
C -2.479982 1.559091 0.000000
C -2.479982 0.159091 0.000000
C 1.157325 -1.940909 0.000000
C -6.117289 3.659091 0.000000
C 8.431938 -1.940909 0.000000
C -3.692417 2.259091 0.000000
C -8.542160 2.259091 0.000000
C 10.856809 -0.540909 0.000000
C -1.267546 -0.540909 0.000000
C 1.157325 -0.540909 0.000000
C -0.055111 0.159091 0.000000
C 10.856809 -1.940909 0.000000
C 3.582196 -1.940909 0.000000
C 4.794632 0.159091 0.000000
C 4.794632 -2.640909 0.000000
C -1.267546 3.659091 0.000000
C -7.329724 0.159091 0.000000
C 9.644374 0.159091 0.000000
C 6.007067 -1.940909 0.000000
C -6.117289 -1.940909 0.000000
C -2.479982 4.359091 0.000000
C -6.117289 -0.540909 0.000000
C 9.644374 -2.640909 0.000000
C -4.904853 0.159091 0.000000
C 7.219503 0.159091 0.000000
C -1.267546 -1.940909 0.000000
C -7.329724 1.559091 0.000000
C 2.369760 -2.640909 0.000000
C -7.329724 4.359091 0.000000
C 6.007067 -0.540909 0.000000
C -8.542160 3.659091 0.000000
C 7.219503 -2.640909 0.000000
C -3.692417 -1.940909 0.000000
C 3.582196 -0.540909 0.000000
H -6.983314 -2.440909 0.000000
H 7.219503 -3.640909 0.000000
H 11.722835 -0.040909 0.000000
H -9.408185 1.759091 0.000000
H 2.369760 -3.640909 0.000000
H 4.794632 -3.640909 0.000000
H -0.401521 4.159091 0.000000
H 9.644374 -3.640909 0.000000
H -4.904853 -3.640909 0.000000
H -9.408185 4.159091 0.000000
H -2.479982 5.359091 0.000000
H -2.479982 -3.640909 0.000000
H 11.722835 -2.440909 0.000000
H 9.644374 1.159091 0.000000
H 2.369760 1.159091 0.000000
H 4.794632 1.159091 0.000000
H -0.055111 -3.640909 0.000000
H -7.329724 5.359091 0.000000
H -0.055111 1.159091 0.000000
H -5.251263 4.159091 0.000000
H -8.195750 -0.340909 0.000000
H 7.219503 1.159091 0.000000