66

C -3.885305 -0.461364 0.000000
C -6.310176 3.738636 0.000000
C -1.460434 0.938636 0.000000
C 9.451486 -2.561364 0.000000
C -7.522612 1.638636 0.000000
C 3.389309 -3.261364 0.000000
C -6.310176 -0.461364 0.000000
C -1.460434 -0.461364 0.000000
C -3.885305 0.938636 0.000000
C -1.460434 -3.261364 0.000000
C -0.247998 5.838636 0.000000
C -0.247998 -1.161364 0.000000
C -0.247998 1.638636 0.000000
C 4.601744 -1.161364 0.000000
C 2.176873 -1.161364 0.000000
C 0.964437 -0.461364 0.000000
C 4.601744 -2.561364 0.000000
C -0.247998 3.038636 0.000000
C 5.814180 -3.261364 0.000000
C 7.026615 -1.161364 0.000000
C -5.097740 3.038636 0.000000
C 8.239051 -0.461364 0.000000
C -3.885305 -3.261364 0.000000
C 3.389309 -0.461364 0.000000
C -2.672869 3.038636 0.000000
C -0.247998 -2.561364 0.000000
C 2.176873 -2.561364 0.000000
C 8.239051 -3.261364 0.000000
C -5.097740 -2.561364 0.000000
C -1.460434 3.738636 0.000000
C -5.097740 -1.161364 0.000000
C 0.964437 5.138636 0.000000
C -7.522612 3.038636 0.000000
C -5.097740 1.638636 0.000000
C -6.310176 0.938636 0.000000
C -2.672869 -1.161364 0.000000
C 9.451486 -1.161364 0.000000
C 7.026615 -2.561364 0.000000
C 5.814180 -0.461364 0.000000
C 0.964437 3.738636 0.000000
C -2.672869 1.638636 0.000000
C -1.460434 5.138636 0.000000
C -2.672869 -2.561364 0.000000
C 0.964437 -3.261364 0.000000
H 1.830463 5.638636 0.000000
H -1.460434 -4.261364 0.000000
H -2.326459 5.638636 0.000000
H -6.310176 4.738636 0.000000
H -8.388637 1.138636 0.000000
H -3.538895 3.538636 0.000000
H 3.389309 0.538636 0.000000
H -3.885305 -4.261364 0.000000
H -0.247998 6.838636 0.000000
H 5.814180 -4.261364 0.000000
H 1.830463 3.238636 0.000000
H -7.176201 -0.961364 0.000000
H 5.814180 0.538636 0.000000
H -5.963766 -3.061364 0.000000
H 3.389309 -4.261364 0.000000
H 10.317512 -3.061364 0.000000
H -8.388637 3.538636 0.000000
H 8.239051 0.538636 0.000000
H 10.317512 -0.661364 0.000000
H 0.964437 -4.261364 0.000000
H 0.964437 0.538636 0.000000
H 8.239051 -4.261364 0.000000