66

C -1.983985 0.827273 0.000000
C -5.621292 2.927273 0.000000
C 6.503063 -4.072727 0.000000
C 0.440886 6.427273 0.000000
C 4.078192 -4.072727 0.000000
C -5.621292 -1.272727 0.000000
C 0.440886 2.227273 0.000000
C -1.983985 -3.372727 0.000000
C -4.408857 2.227273 0.000000
C 7.715499 -1.972727 0.000000
C -4.408857 0.827273 0.000000
C 7.715499 -3.372727 0.000000
C 5.290628 -1.972727 0.000000
C 4.078192 -1.272727 0.000000
C 2.865757 -3.372727 0.000000
C 1.653321 7.127273 0.000000
C -0.771550 -4.072727 0.000000
C 0.440886 -3.372727 0.000000
C -1.983985 2.227273 0.000000
C 1.653321 4.327273 0.000000
C -4.408857 -3.372727 0.000000
C 0.440886 5.027273 0.000000
C -5.621292 0.127273 0.000000
C -4.408857 -1.972727 0.000000
C -3.196421 -4.072727 0.000000
C -0.771550 4.327273 0.000000
C -6.833728 2.227273 0.000000
C -0.771550 -1.272727 0.000000
C -6.833728 0.827273 0.000000
C 6.503063 -1.272727 0.000000
C -3.196421 -1.272727 0.000000
C -3.196421 0.127273 0.000000
C 2.865757 6.427273 0.000000
C 5.290628 -3.372727 0.000000
C 2.865757 5.027273 0.000000
C 1.653321 -1.272727 0.000000
C 2.865757 -1.972727 0.000000
C 0.440886 -1.972727 0.000000
C -0.771550 0.127273 0.000000
C 0.440886 0.827273 0.000000
C -0.771550 2.927273 0.000000
C 1.653321 -4.072727 0.000000
C 1.653321 2.927273 0.000000
C -1.983985 -1.972727 0.000000
H 4.078192 -0.272727 0.000000
H 3.731782 6.927273 0.000000
H 8.581524 -1.472727 0.000000
H -6.487318 -1.772727 0.000000
H -0.771550 -5.072727 0.000000
H -0.425140 6.927273 0.000000
H -5.621292 3.927273 0.000000
H 1.653321 -5.072727 0.000000
H 1.306911 0.327273 0.000000
H 6.503063 -0.272727 0.000000
H -3.196421 -5.072727 0.000000
H 2.519347 2.427273 0.000000
H -7.699753 0.327273 0.000000
H 4.078192 -5.072727 0.000000
H 8.581524 -3.872727 0.000000
H -2.850011 2.727273 0.000000
H 6.503063 -5.072727 0.000000
H -7.699753 2.727273 0.000000
H 3.731782 4.527273 0.000000
H 1.653321 8.127273 0.000000
H -1.637575 4.827273 0.000000
H -5.274882 -3.872727 0.000000