78

C -5.805701 -0.175000 0.000000
C 12.380832 -0.875000 0.000000
C 9.955961 -2.275000 0.000000
C -8.230572 4.025000 0.000000
C -3.380830 1.225000 0.000000
C 7.531090 -2.275000 0.000000
C -9.443008 1.925000 0.000000
C 8.743526 -2.975000 0.000000
C 8.743526 -0.175000 0.000000
C 1.468912 -2.975000 0.000000
C -8.230572 -0.175000 0.000000
C -3.380830 -0.175000 0.000000
C -5.805701 1.225000 0.000000
C -3.380830 -2.975000 0.000000
C -2.168394 6.125000 0.000000
C 11.168397 -0.175000 0.000000
C -2.168394 -0.875000 0.000000
C -2.168394 1.925000 0.000000
C 2.681348 -0.875000 0.000000
C 0.256477 -0.875000 0.000000
C -0.955959 -0.175000 0.000000
C 2.681348 -2.275000 0.000000
C -2.168394 3.325000 0.000000
C 3.893783 -2.975000 0.000000
C 5.106219 -0.875000 0.000000
C -7.018137 3.325000 0.000000
C 6.318655 -0.175000 0.000000
C -5.805701 -2.975000 0.000000
C 1.468912 -0.175000 0.000000
C -4.593266 3.325000 0.000000
C -2.168394 -2.275000 0.000000
C 0.256477 -2.275000 0.000000
C 6.318655 -2.975000 0.000000
C -7.018137 -2.275000 0.000000
C -3.380830 4.025000 0.000000
C -7.018137 -0.875000 0.000000
C -0.955959 5.425000 0.000000
C -9.443008 3.325000 0.000000
C 11.168397 -2.975000 0.000000
C 12.380832 -2.275000 0.000000
C -7.018137 1.925000 0.000000
C -8.230572 1.225000 0.000000
C -4.593266 -0.875000 0.000000
C 7.531090 -0.875000 0.000000
C 5.106219 -2.275000 0.000000
C 9.955961 -0.875000 0.000000
C 3.893783 -0.175000 0.000000
C -0.955959 4.025000 0.000000
C -4.593266 1.925000 0.000000
C -3.380830 5.425000 0.000000
C -4.593266 -2.275000 0.000000
C -0.955959 -2.975000 0.000000
H 13.246858 -2.775000 0.000000
H -0.089933 5.925000 0.000000
H 8.743526 -3.975000 0.000000
H -3.380830 -3.975000 0.000000
H -4.246855 5.925000 0.000000
H -8.230572 5.025000 0.000000
H -10.309033 1.425000 0.000000
H -5.459291 3.825000 0.000000
H 1.468912 0.825000 0.000000
H -5.805701 -3.975000 0.000000
H -2.168394 7.125000 0.000000
H 3.893783 -3.975000 0.000000
H 11.168397 -3.975000 0.000000
H -0.089933 3.525000 0.000000
H -9.096598 -0.675000 0.000000
H 3.893783 0.825000 0.000000
H 11.168397 0.825000 0.000000
H 13.246858 -0.375000 0.000000
H -7.884162 -2.775000 0.000000
H 1.468912 -3.975000 0.000000
H 8.743526 0.825000 0.000000
H 6.318655 0.825000 0.000000
H -10.309033 3.825000 0.000000
H -0.955959 -3.975000 0.000000
H -0.955959 0.825000 0.000000
H 6.318655 -3.975000 0.000000