50

C 5.569626 -0.415625 0.000000
C -0.492552 0.284375 0.000000
C -0.492552 1.684375 0.000000
C 1.932319 0.284375 0.000000
C 0.719884 -0.415625 0.000000
C -6.554730 2.384375 0.000000
C 4.357190 -2.515625 0.000000
C -5.342294 4.484375 0.000000
C 6.782061 0.284375 0.000000
C -4.129859 3.784375 0.000000
C -1.704988 2.384375 0.000000
C -4.129859 -1.815625 0.000000
C -6.554730 3.784375 0.000000
C 0.719884 -1.815625 0.000000
C -0.492552 -2.515625 0.000000
C -1.704988 -1.815625 0.000000
C -4.129859 2.384375 0.000000
C 7.994497 -1.815625 0.000000
C -5.342294 1.684375 0.000000
C -1.704988 -0.415625 0.000000
C 3.144755 -0.415625 0.000000
C 6.782061 -2.515625 0.000000
C -4.129859 -0.415625 0.000000
C 5.569626 -1.815625 0.000000
C -2.917423 0.284375 0.000000
C 3.144755 -1.815625 0.000000
C -5.342294 0.284375 0.000000
C -2.917423 -2.515625 0.000000
C 7.994497 -0.415625 0.000000
C 1.932319 -2.515625 0.000000
C 4.357190 0.284375 0.000000
C -2.917423 1.684375 0.000000
H -5.342294 5.484375 0.000000
H 8.860522 -2.315625 0.000000
H 4.357190 1.284375 0.000000
H -2.917423 -3.515625 0.000000
H 6.782061 -3.515625 0.000000
H -4.995884 -2.315625 0.000000
H 1.932319 1.284375 0.000000
H 0.373473 2.184375 0.000000
H 4.357190 -3.515625 0.000000
H -6.208320 -0.215625 0.000000
H -0.492552 -3.515625 0.000000
H -7.420755 4.284375 0.000000
H 6.782061 1.284375 0.000000
H -3.263833 4.284375 0.000000
H 1.932319 -3.515625 0.000000
H -1.704988 3.384375 0.000000
H 8.860522 0.084375 0.000000
H -7.420755 1.884375 0.000000