48

C -3.902527 0.240625 0.000000
C 2.159651 -1.859375 0.000000
C 2.159651 0.940625 0.000000
C 2.159651 5.140625 0.000000
C 3.372086 4.440625 0.000000
C 0.947215 -1.159375 0.000000
C -3.902527 3.040625 0.000000
C 4.584522 -1.859375 0.000000
C -2.690091 -1.859375 0.000000
C -1.477656 0.240625 0.000000
C -2.690091 -3.259375 0.000000
C -5.114963 0.940625 0.000000
C 2.159651 2.340625 0.000000
C -0.265220 -3.259375 0.000000
C -5.114963 2.340625 0.000000
C 0.947215 -3.959375 0.000000
C -1.477656 -3.959375 0.000000
C 3.372086 -3.959375 0.000000
C 2.159651 -3.259375 0.000000
C 3.372086 -1.159375 0.000000
C 0.947215 0.240625 0.000000
C -2.690091 0.940625 0.000000
C 4.584522 -3.259375 0.000000
C 0.947215 4.440625 0.000000
C -1.477656 -1.159375 0.000000
C -0.265220 0.940625 0.000000
C 3.372086 3.040625 0.000000
C -0.265220 -1.859375 0.000000
C -0.265220 2.340625 0.000000
C -3.902527 -1.159375 0.000000
C -2.690091 2.340625 0.000000
C 0.947215 3.040625 0.000000
H -3.556117 -3.759375 0.000000
H 3.372086 -4.959375 0.000000
H 5.450547 -1.359375 0.000000
H 2.159651 6.140625 0.000000
H -5.980988 2.840625 0.000000
H 0.947215 -4.959375 0.000000
H 5.450547 -3.759375 0.000000
H 3.372086 -0.159375 0.000000
H -1.477656 -4.959375 0.000000
H -1.824066 2.840625 0.000000
H 0.081190 4.940625 0.000000
H -3.902527 4.040625 0.000000
H -5.980988 0.440625 0.000000
H 4.238112 2.540625 0.000000
H -4.768552 -1.659375 0.000000
H 4.238112 4.940625 0.000000