72

C -4.824483 -0.306250 0.000000
C 10.937179 -2.406250 0.000000
C -7.249354 3.893750 0.000000
C -2.399612 1.093750 0.000000
C 8.512308 -2.406250 0.000000
C -8.461790 1.793750 0.000000
C 9.724744 -3.106250 0.000000
C 9.724744 -0.306250 0.000000
C 2.450130 -3.106250 0.000000
C -7.249354 -0.306250 0.000000
C -2.399612 -0.306250 0.000000
C -4.824483 1.093750 0.000000
C -2.399612 -3.106250 0.000000
C -1.187176 5.993750 0.000000
C -1.187176 -1.006250 0.000000
C -1.187176 1.793750 0.000000
C 3.662566 -1.006250 0.000000
C 1.237695 -1.006250 0.000000
C 0.025259 -0.306250 0.000000
C 3.662566 -2.406250 0.000000
C -1.187176 3.193750 0.000000
C 4.875001 -3.106250 0.000000
C 6.087437 -1.006250 0.000000
C -6.036919 3.193750 0.000000
C 7.299872 -0.306250 0.000000
C -4.824483 -3.106250 0.000000
C 2.450130 -0.306250 0.000000
C -3.612048 3.193750 0.000000
C -1.187176 -2.406250 0.000000
C 1.237695 -2.406250 0.000000
C 7.299872 -3.106250 0.000000
C -6.036919 -2.406250 0.000000
C -2.399612 3.893750 0.000000
C -6.036919 -1.006250 0.000000
C 0.025259 5.293750 0.000000
C -8.461790 3.193750 0.000000
C -6.036919 1.793750 0.000000
C -7.249354 1.093750 0.000000
C -3.612048 -1.006250 0.000000
C 8.512308 -1.006250 0.000000
C 6.087437 -2.406250 0.000000
C 10.937179 -1.006250 0.000000
C 4.875001 -0.306250 0.000000
C 0.025259 3.893750 0.000000
C -3.612048 1.793750 0.000000
C -2.399612 5.293750 0.000000
C -3.612048 -2.406250 0.000000
C 0.025259 -3.106250 0.000000
H 0.891284 5.793750 0.000000
H 9.724744 -4.106250 0.000000
H -2.399612 -4.106250 0.000000
H -3.265637 5.793750 0.000000
H 11.803205 -2.906250 0.000000
H -7.249354 4.893750 0.000000
H -9.327815 1.293750 0.000000
H -4.478073 3.693750 0.000000
H 2.450130 0.693750 0.000000
H -4.824483 -4.106250 0.000000
H -1.187176 6.993750 0.000000
H 4.875001 -4.106250 0.000000
H 0.891284 3.393750 0.000000
H -8.115380 -0.806250 0.000000
H 11.803205 -0.506250 0.000000
H 4.875001 0.693750 0.000000
H -6.902944 -2.906250 0.000000
H 2.450130 -4.106250 0.000000
H 9.724744 0.693750 0.000000
H 7.299872 0.693750 0.000000
H -9.327815 3.693750 0.000000
H 0.025259 -4.106250 0.000000
H 0.025259 0.693750 0.000000
H 7.299872 -4.106250 0.000000