42

C -1.865285 -2.530769 0.000000
C -1.865285 1.669231 0.000000
C 4.196892 -1.830769 0.000000
C -4.290157 0.269231 0.000000
C -5.502592 3.769231 0.000000
C 2.984457 0.269231 0.000000
C 6.621763 -0.430769 0.000000
C 2.984457 -2.530769 0.000000
C -4.290157 1.669231 0.000000
C -0.652850 -1.830769 0.000000
C 0.559586 -2.530769 0.000000
C -4.290157 4.469231 0.000000
C 1.772021 -0.430769 0.000000
C 4.196892 -0.430769 0.000000
C 0.559586 0.269231 0.000000
C 6.621763 -1.830769 0.000000
C -1.865285 0.269231 0.000000
C 5.409328 -2.530769 0.000000
C -0.652850 -0.430769 0.000000
C -3.077721 2.369231 0.000000
C -3.077721 3.769231 0.000000
C -3.077721 -0.430769 0.000000
C -3.077721 -1.830769 0.000000
C 5.409328 0.269231 0.000000
C 1.772021 -1.830769 0.000000
C -5.502592 2.369231 0.000000
H -6.368618 4.269231 0.000000
H 2.984457 -3.530769 0.000000
H -4.290157 5.469231 0.000000
H -1.865285 -3.530769 0.000000
H -5.156182 -0.230769 0.000000
H 7.487789 0.069231 0.000000
H -2.211696 4.269231 0.000000
H -6.368618 1.869231 0.000000
H 0.559586 1.269231 0.000000
H 0.559586 -3.530769 0.000000
H 2.984457 1.269231 0.000000
H -3.943746 -2.330769 0.000000
H 5.409328 -3.530769 0.000000
H 5.409328 1.269231 0.000000
H -0.999260 2.169231 0.000000
H 7.487789 -2.330769 0.000000