44

C 6.625094 -0.575000 0.000000
C 0.562917 0.125000 0.000000
C 0.562917 1.525000 0.000000
C 2.987788 0.125000 0.000000
C 1.775352 -0.575000 0.000000
C -5.499261 2.225000 0.000000
C 5.412659 -2.675000 0.000000
C -4.286826 4.325000 0.000000
C -3.074390 3.625000 0.000000
C -0.649519 2.225000 0.000000
C -3.074390 -1.975000 0.000000
C -5.499261 3.625000 0.000000
C 1.775352 -1.975000 0.000000
C 0.562917 -2.675000 0.000000
C -0.649519 -1.975000 0.000000
C -3.074390 2.225000 0.000000
C -4.286826 1.525000 0.000000
C -0.649519 -0.575000 0.000000
C 4.200223 -0.575000 0.000000
C -3.074390 -0.575000 0.000000
C 6.625094 -1.975000 0.000000
C -1.861955 0.125000 0.000000
C 4.200223 -1.975000 0.000000
C -4.286826 0.125000 0.000000
C -1.861955 -2.675000 0.000000
C 2.987788 -2.675000 0.000000
C 5.412659 0.125000 0.000000
C -1.861955 1.525000 0.000000
H -6.365287 1.725000 0.000000
H 2.987788 1.125000 0.000000
H 0.562917 -3.675000 0.000000
H 5.412659 1.125000 0.000000
H -5.152851 -0.375000 0.000000
H -0.649519 3.225000 0.000000
H 7.491120 -2.475000 0.000000
H 2.987788 -3.675000 0.000000
H 5.412659 -3.675000 0.000000
H 1.428942 2.025000 0.000000
H -2.208365 4.125000 0.000000
H -1.861955 -3.675000 0.000000
H -6.365287 4.125000 0.000000
H 7.491120 -0.075000 0.000000
H -4.286826 5.325000 0.000000
H -3.940416 -2.475000 0.000000