54

C -3.974094 2.566667 0.000000
C 2.088083 1.866667 0.000000
C -2.761659 0.466667 0.000000
C -5.186530 -2.333333 0.000000
C -0.336788 1.866667 0.000000
C -3.974094 -4.433333 0.000000
C -1.549223 -4.433333 0.000000
C -3.974094 3.966667 0.000000
C 4.512955 1.866667 0.000000
C -0.336788 -3.733333 0.000000
C -2.761659 -2.333333 0.000000
C 3.300519 -0.233333 0.000000
C 4.512955 4.666667 0.000000
C 5.725390 3.966667 0.000000
C -2.761659 1.866667 0.000000
C -0.336788 0.466667 0.000000
C -1.549223 2.566667 0.000000
C -2.761659 -3.733333 0.000000
C 3.300519 3.966667 0.000000
C -3.974094 -1.633333 0.000000
C -2.761659 4.666667 0.000000
C -1.549223 -0.233333 0.000000
C 0.875648 -4.433333 0.000000
C 0.875648 -1.633333 0.000000
C 3.300519 -1.633333 0.000000
C 2.088083 0.466667 0.000000
C 4.512955 0.466667 0.000000
C 3.300519 2.566667 0.000000
C 0.875648 -0.233333 0.000000
C 5.725390 2.566667 0.000000
C 2.088083 -3.733333 0.000000
C 2.088083 -2.333333 0.000000
C -0.336788 -2.333333 0.000000
C -1.549223 -1.633333 0.000000
C -5.186530 -3.733333 0.000000
C -1.549223 3.966667 0.000000
H -6.052555 -1.833333 0.000000
H -2.761659 5.666667 0.000000
H 0.529238 2.366667 0.000000
H -4.840120 4.466667 0.000000
H -4.840120 2.066667 0.000000
H 2.434494 4.466667 0.000000
H 6.591416 2.066667 0.000000
H 4.166544 -2.133333 0.000000
H 0.875648 -5.433333 0.000000
H 2.954109 -4.233333 0.000000
H -0.683198 4.466667 0.000000
H -3.974094 -0.633333 0.000000
H -1.549223 -5.433333 0.000000
H 4.512955 5.666667 0.000000
H 6.591416 4.466667 0.000000
H -3.974094 -5.433333 0.000000
H -6.052555 -4.233333 0.000000
H 5.378980 -0.033333 0.000000