84

C -4.546633 1.400000 0.000000
C -8.183940 3.500000 0.000000
C 3.940416 -3.500000 0.000000
C -2.121762 7.000000 0.000000
C 1.515544 -3.500000 0.000000
C 10.002593 -2.800000 0.000000
C -8.183940 -0.700000 0.000000
C -2.121762 2.800000 0.000000
C -4.546633 -2.800000 0.000000
C 12.427465 -2.800000 0.000000
C -6.971505 2.800000 0.000000
C 5.152851 -1.400000 0.000000
C -6.971505 1.400000 0.000000
C 5.152851 -2.800000 0.000000
C 2.727980 -1.400000 0.000000
C 1.515544 -0.700000 0.000000
C 10.002593 -1.400000 0.000000
C 0.303109 -2.800000 0.000000
C 7.577722 -1.400000 0.000000
C -0.909327 7.700000 0.000000
C 6.365287 -0.700000 0.000000
C 8.790158 -0.700000 0.000000
C -3.334198 -3.500000 0.000000
C -2.121762 -2.800000 0.000000
C -4.546633 2.800000 0.000000
C 7.577722 -2.800000 0.000000
C -0.909327 4.900000 0.000000
C -6.971505 -2.800000 0.000000
C -2.121762 5.600000 0.000000
C -8.183940 0.700000 0.000000
C -6.971505 -1.400000 0.000000
C -5.759069 -3.500000 0.000000
C -3.334198 4.900000 0.000000
C 12.427465 -1.400000 0.000000
C -9.396376 2.800000 0.000000
C -3.334198 -0.700000 0.000000
C 8.790158 -3.500000 0.000000
C -9.396376 1.400000 0.000000
C 3.940416 -0.700000 0.000000
C -5.759069 -0.700000 0.000000
C -5.759069 0.700000 0.000000
C 0.303109 7.000000 0.000000
C 2.727980 -2.800000 0.000000
C 0.303109 5.600000 0.000000
C -0.909327 -0.700000 0.000000
C 0.303109 -1.400000 0.000000
C 6.365287 -3.500000 0.000000
C -2.121762 -1.400000 0.000000
C -3.334198 0.700000 0.000000
C -2.121762 1.400000 0.000000
C -3.334198 3.500000 0.000000
C -0.909327 -3.500000 0.000000
C -0.909327 3.500000 0.000000
C -4.546633 -1.400000 0.000000
C 11.215029 -3.500000 0.000000
C 11.215029 -0.700000 0.000000
H 1.515544 0.300000 0.000000
H 8.790158 0.300000 0.000000
H 1.169134 7.500000 0.000000
H 6.365287 -4.500000 0.000000
H 6.365287 0.300000 0.000000
H -9.049965 -1.200000 0.000000
H -3.334198 -4.500000 0.000000
H -2.987788 7.500000 0.000000
H -8.183940 4.500000 0.000000
H -0.909327 -4.500000 0.000000
H -1.255737 0.900000 0.000000
H -5.759069 -4.500000 0.000000
H 3.940416 0.300000 0.000000
H -0.043301 3.000000 0.000000
H -10.262401 0.900000 0.000000
H 1.515544 -4.500000 0.000000
H -5.412659 3.300000 0.000000
H 3.940416 -4.500000 0.000000
H 13.293490 -3.300000 0.000000
H -10.262401 3.300000 0.000000
H 8.790158 -4.500000 0.000000
H 1.169134 5.100000 0.000000
H 11.215029 0.300000 0.000000
H -0.909327 8.700000 0.000000
H 13.293490 -0.900000 0.000000
H 11.215029 -4.500000 0.000000
H -4.200223 5.400000 0.000000
H -7.837530 -3.300000 0.000000