72

C -9.198696 2.267391 0.000000
C -1.924083 -1.932609 0.000000
C -9.198696 3.667391 0.000000
C -1.924083 -0.532609 0.000000
C 6.562966 -2.632609 0.000000
C -10.411131 5.767391 0.000000
C -0.711647 -2.632609 0.000000
C -7.986260 1.567391 0.000000
C 11.412709 0.167391 0.000000
C 8.987838 -2.632609 0.000000
C -0.711647 0.167391 0.000000
C 5.350531 -0.532609 0.000000
C -5.561389 -2.632609 0.000000
C -5.561389 1.567391 0.000000
C -7.986260 4.367391 0.000000
C -9.198696 6.467391 0.000000
C -4.348954 -0.532609 0.000000
C 4.138095 -2.632609 0.000000
C -5.561389 0.167391 0.000000
C 6.562966 0.167391 0.000000
C 0.500789 -0.532609 0.000000
C -6.773825 2.267391 0.000000
C 1.713224 -2.632609 0.000000
C -7.986260 5.767391 0.000000
C 7.775402 -0.532609 0.000000
C 8.987838 0.167391 0.000000
C 12.625144 -1.932609 0.000000
C 12.625144 -0.532609 0.000000
C 10.200273 -0.532609 0.000000
C 7.775402 -1.932609 0.000000
C -6.773825 -0.532609 0.000000
C 0.500789 -1.932609 0.000000
C -6.773825 3.667391 0.000000
C 2.925660 -0.532609 0.000000
C 4.138095 0.167391 0.000000
C -3.136518 -2.632609 0.000000
C -10.411131 4.367391 0.000000
C 11.412709 -2.632609 0.000000
C -7.986260 0.167391 0.000000
C -3.136518 0.167391 0.000000
C -6.773825 -1.932609 0.000000
C 5.350531 -1.932609 0.000000
C -4.348954 -1.932609 0.000000
C 10.200273 -1.932609 0.000000
C 1.713224 0.167391 0.000000
C 2.925660 -1.932609 0.000000
H -9.198696 7.467391 0.000000
H 1.713224 -3.632609 0.000000
H -5.907799 4.167391 0.000000
H 13.491170 -2.432609 0.000000
H -5.561389 -3.632609 0.000000
H 13.491170 -0.032609 0.000000
H -0.711647 -3.632609 0.000000
H 1.713224 1.167391 0.000000
H 6.562966 -3.632609 0.000000
H -11.277157 3.867391 0.000000
H -3.136518 1.167391 0.000000
H 6.562966 1.167391 0.000000
H 8.987838 -3.632609 0.000000
H 4.138095 1.167391 0.000000
H 8.987838 1.167391 0.000000
H -0.711647 1.167391 0.000000
H 11.412709 1.167391 0.000000
H -11.277157 6.267391 0.000000
H -8.852286 -0.332609 0.000000
H -10.064721 1.767391 0.000000
H 4.138095 -3.632609 0.000000
H -4.695364 2.067391 0.000000
H -7.639850 -2.432609 0.000000
H -3.136518 -3.632609 0.000000
H 11.412709 -3.632609 0.000000
H -7.120235 6.267391 0.000000