60

C -1.576166 -1.330000 0.000000
C -4.001037 2.870000 0.000000
C 0.848705 0.070000 0.000000
C -5.213473 0.770000 0.000000
C 5.698447 -4.130000 0.000000
C -6.425908 2.870000 0.000000
C -4.001037 -1.330000 0.000000
C 0.848705 -1.330000 0.000000
C -1.576166 0.070000 0.000000
C 0.848705 -4.130000 0.000000
C 2.061140 4.970000 0.000000
C 2.061140 -2.030000 0.000000
C 2.061140 0.770000 0.000000
C 6.910883 -2.030000 0.000000
C 4.486012 -2.030000 0.000000
C -5.213473 4.970000 0.000000
C 3.273576 -1.330000 0.000000
C 6.910883 -3.430000 0.000000
C 2.061140 2.170000 0.000000
C -2.788602 2.170000 0.000000
C -1.576166 -4.130000 0.000000
C 5.698447 -1.330000 0.000000
C -0.363731 2.170000 0.000000
C 2.061140 -3.430000 0.000000
C 4.486012 -3.430000 0.000000
C -2.788602 -3.430000 0.000000
C 0.848705 2.870000 0.000000
C -2.788602 -2.030000 0.000000
C 3.273576 4.270000 0.000000
C -5.213473 2.170000 0.000000
C -6.425908 4.270000 0.000000
C -2.788602 0.770000 0.000000
C -4.001037 4.270000 0.000000
C -4.001037 0.070000 0.000000
C -0.363731 -2.030000 0.000000
C 3.273576 2.870000 0.000000
C 0.848705 4.270000 0.000000
C -0.363731 0.770000 0.000000
C -0.363731 -3.430000 0.000000
C 3.273576 -4.130000 0.000000
H 4.139601 4.770000 0.000000
H 0.848705 -5.130000 0.000000
H 7.776908 -3.930000 0.000000
H 7.776908 -1.530000 0.000000
H -0.017321 4.770000 0.000000
H -7.291934 2.370000 0.000000
H -3.135012 4.770000 0.000000
H -5.213473 5.970000 0.000000
H -6.079498 0.270000 0.000000
H -1.229756 2.670000 0.000000
H -7.291934 4.770000 0.000000
H 5.698447 -0.330000 0.000000
H -1.576166 -5.130000 0.000000
H 2.061140 5.970000 0.000000
H 4.139601 2.370000 0.000000
H -4.867063 -1.830000 0.000000
H -3.654627 -3.930000 0.000000
H 5.698447 -5.130000 0.000000
H 3.273576 -5.130000 0.000000
H 3.273576 -0.330000 0.000000