84

C -3.009438 0.912500 0.000000
C -6.646745 3.012500 0.000000
C 5.477611 -3.987500 0.000000
C -0.584567 6.512500 0.000000
C 3.052740 -3.987500 0.000000
C 11.539789 -3.287500 0.000000
C -7.859181 5.112500 0.000000
C -6.646745 -1.187500 0.000000
C -3.009438 -3.287500 0.000000
C -0.584567 2.312500 0.000000
C -5.434309 2.312500 0.000000
C -5.434309 0.912500 0.000000
C 6.690046 -1.887500 0.000000
C 6.690046 -3.287500 0.000000
C 4.265175 -1.887500 0.000000
C 3.052740 -1.187500 0.000000
C 11.539789 -1.887500 0.000000
C 1.840304 -3.287500 0.000000
C 9.114917 -1.887500 0.000000
C 0.627868 7.212500 0.000000
C 7.902482 -1.187500 0.000000
C 10.327353 -1.187500 0.000000
C -1.797003 -3.987500 0.000000
C -0.584567 -3.287500 0.000000
C -3.009438 2.312500 0.000000
C 9.114917 -3.287500 0.000000
C -9.071616 4.412500 0.000000
C 0.627868 4.412500 0.000000
C -5.434309 -3.287500 0.000000
C -0.584567 5.112500 0.000000
C -6.646745 0.212500 0.000000
C -6.646745 4.412500 0.000000
C -5.434309 -1.887500 0.000000
C -9.071616 3.012500 0.000000
C -4.221874 -3.987500 0.000000
C -1.797003 4.412500 0.000000
C -7.859181 2.312500 0.000000
C -1.797003 -1.187500 0.000000
C 10.327353 -3.987500 0.000000
C -7.859181 0.912500 0.000000
C 5.477611 -1.187500 0.000000
C -4.221874 -1.187500 0.000000
C -4.221874 0.212500 0.000000
C 1.840304 6.512500 0.000000
C 4.265175 -3.287500 0.000000
C 1.840304 5.112500 0.000000
C 0.627868 -1.187500 0.000000
C 1.840304 -1.887500 0.000000
C 7.902482 -3.987500 0.000000
C -0.584567 -1.887500 0.000000
C -1.797003 0.212500 0.000000
C -0.584567 0.912500 0.000000
C -1.797003 3.012500 0.000000
C 0.627868 -3.987500 0.000000
C 0.627868 3.012500 0.000000
C -3.009438 -1.887500 0.000000
H 3.052740 -0.187500 0.000000
H 10.327353 -0.187500 0.000000
H 2.706329 7.012500 0.000000
H 7.902482 -4.987500 0.000000
H 7.902482 -0.187500 0.000000
H -7.512770 -1.687500 0.000000
H -1.797003 -4.987500 0.000000
H -9.937642 2.512500 0.000000
H -1.450593 7.012500 0.000000
H 0.627868 -4.987500 0.000000
H 0.281458 0.412500 0.000000
H -4.221874 -4.987500 0.000000
H 5.477611 -0.187500 0.000000
H 1.493894 2.512500 0.000000
H -8.725206 0.412500 0.000000
H 3.052740 -4.987500 0.000000
H -3.875464 2.812500 0.000000
H 5.477611 -4.987500 0.000000
H -5.780720 4.912500 0.000000
H 10.327353 -4.987500 0.000000
H 2.706329 4.612500 0.000000
H -7.859181 6.112500 0.000000
H -9.937642 4.912500 0.000000
H 0.627868 8.212500 0.000000
H 12.405814 -3.787500 0.000000
H 12.405814 -1.387500 0.000000
H -2.663028 4.912500 0.000000
H -6.300335 -3.787500 0.000000