60

C -2.212695 -3.447500 0.000000
C -1.000259 -1.347500 0.000000
C -2.212695 0.752500 0.000000
C -3.425130 1.452500 0.000000
C 1.424612 1.452500 0.000000
C 2.637047 -3.447500 0.000000
C -1.000259 2.852500 0.000000
C 0.212176 -3.447500 0.000000
C 5.061918 -0.647500 0.000000
C 0.212176 0.752500 0.000000
C 0.212176 -0.647500 0.000000
C 3.849483 -2.747500 0.000000
C -3.425130 2.852500 0.000000
C -1.000259 1.452500 0.000000
C -5.850002 1.452500 0.000000
C -4.637566 4.952500 0.000000
C 1.424612 -1.347500 0.000000
C 3.849483 -1.347500 0.000000
C 2.637047 -0.647500 0.000000
C 6.274354 -2.747500 0.000000
C 7.486790 -0.647500 0.000000
C 7.486790 -3.447500 0.000000
C -5.850002 5.652500 0.000000
C 1.424612 2.852500 0.000000
C -4.637566 -0.647500 0.000000
C 8.699225 -2.747500 0.000000
C -3.425130 -2.747500 0.000000
C 0.212176 3.552500 0.000000
C -3.425130 -1.347500 0.000000
C -2.212695 -0.647500 0.000000
C -7.062437 4.952500 0.000000
C 1.424612 -2.747500 0.000000
C -4.637566 0.752500 0.000000
C 5.061918 -3.447500 0.000000
C -4.637566 3.552500 0.000000
C -5.850002 2.852500 0.000000
C 8.699225 -1.347500 0.000000
C -7.062437 3.552500 0.000000
C -1.000259 -2.747500 0.000000
C 6.274354 -1.347500 0.000000
H 9.565251 -3.247500 0.000000
H -4.291156 -3.247500 0.000000
H -6.716027 0.952500 0.000000
H -5.850002 6.652500 0.000000
H 5.061918 -4.447500 0.000000
H 7.486790 -4.447500 0.000000
H 2.290637 3.352500 0.000000
H -3.771541 5.452500 0.000000
H 9.565251 -0.847500 0.000000
H -2.212695 -4.447500 0.000000
H 0.212176 4.552500 0.000000
H 0.212176 -4.447500 0.000000
H 5.061918 0.352500 0.000000
H 7.486790 0.352500 0.000000
H 2.637047 -4.447500 0.000000
H -7.928463 5.452500 0.000000
H -7.928463 3.052500 0.000000
H 2.637047 0.352500 0.000000
H -2.559105 3.352500 0.000000
H -5.503591 -1.147500 0.000000