72

C -3.233162 -0.875000 0.000000
C -5.658033 3.325000 0.000000
C -0.808290 0.525000 0.000000
C 10.103630 -2.975000 0.000000
C -6.870468 1.225000 0.000000
C 4.041452 -3.675000 0.000000
C -8.082904 3.325000 0.000000
C -5.658033 -0.875000 0.000000
C -0.808290 -0.875000 0.000000
C -3.233162 0.525000 0.000000
C -0.808290 -3.675000 0.000000
C 0.404145 5.425000 0.000000
C 0.404145 -1.575000 0.000000
C 0.404145 1.225000 0.000000
C 5.253887 -1.575000 0.000000
C 2.829016 -1.575000 0.000000
C -6.870468 5.425000 0.000000
C 1.616581 -0.875000 0.000000
C 5.253887 -2.975000 0.000000
C 0.404145 2.625000 0.000000
C 6.466323 -3.675000 0.000000
C -4.445597 2.625000 0.000000
C 7.678759 -1.575000 0.000000
C 8.891194 -0.875000 0.000000
C -3.233162 -3.675000 0.000000
C 4.041452 -0.875000 0.000000
C -2.020726 2.625000 0.000000
C 0.404145 -2.975000 0.000000
C 2.829016 -2.975000 0.000000
C 8.891194 -3.675000 0.000000
C -4.445597 -2.975000 0.000000
C -0.808290 3.325000 0.000000
C -4.445597 -1.575000 0.000000
C 1.616581 4.725000 0.000000
C -6.870468 2.625000 0.000000
C -8.082904 4.725000 0.000000
C -4.445597 1.225000 0.000000
C -5.658033 4.725000 0.000000
C -5.658033 0.525000 0.000000
C -2.020726 -1.575000 0.000000
C 10.103630 -1.575000 0.000000
C 7.678759 -2.975000 0.000000
C 6.466323 -0.875000 0.000000
C 1.616581 3.325000 0.000000
C -2.020726 1.225000 0.000000
C -0.808290 4.725000 0.000000
C -2.020726 -2.975000 0.000000
C 1.616581 -3.675000 0.000000
H 2.482606 5.225000 0.000000
H -0.808290 -4.675000 0.000000
H -1.674316 5.225000 0.000000
H -8.948929 2.825000 0.000000
H -4.792007 5.225000 0.000000
H -6.870468 6.425000 0.000000
H -7.736494 0.725000 0.000000
H -2.886751 3.125000 0.000000
H -8.948929 5.225000 0.000000
H 4.041452 0.125000 0.000000
H -3.233162 -4.675000 0.000000
H 0.404145 6.425000 0.000000
H 6.466323 -4.675000 0.000000
H 2.482606 2.825000 0.000000
H -6.524058 -1.375000 0.000000
H 6.466323 0.125000 0.000000
H -5.311622 -3.475000 0.000000
H 4.041452 -4.675000 0.000000
H 10.969655 -3.475000 0.000000
H 8.891194 0.125000 0.000000
H 10.969655 -1.075000 0.000000
H 1.616581 -4.675000 0.000000
H 1.616581 0.125000 0.000000
H 8.891194 -4.675000 0.000000