50

C 7.350391 -1.268750 0.000000
C -3.561529 5.031250 0.000000
C 1.288213 -0.568750 0.000000
C 1.288213 0.831250 0.000000
C 3.713084 -0.568750 0.000000
C 2.500648 -1.268750 0.000000
C -4.773965 1.531250 0.000000
C 6.137955 -3.368750 0.000000
C -3.561529 3.631250 0.000000
C -4.773965 5.731250 0.000000
C -2.349094 2.931250 0.000000
C 0.075777 1.531250 0.000000
C -2.349094 -2.668750 0.000000
C -4.773965 2.931250 0.000000
C 2.500648 -2.668750 0.000000
C 1.288213 -3.368750 0.000000
C 0.075777 -2.668750 0.000000
C -2.349094 1.531250 0.000000
C -5.986401 5.031250 0.000000
C -3.561529 0.831250 0.000000
C 0.075777 -1.268750 0.000000
C 4.925519 -1.268750 0.000000
C -5.986401 3.631250 0.000000
C -2.349094 -1.268750 0.000000
C 7.350391 -2.668750 0.000000
C -1.136658 -0.568750 0.000000
C 4.925519 -2.668750 0.000000
C -3.561529 -0.568750 0.000000
C -1.136658 -3.368750 0.000000
C 3.713084 -3.368750 0.000000
C 6.137955 -0.568750 0.000000
C -1.136658 0.831250 0.000000
H -6.852426 3.131250 0.000000
H 6.137955 0.431250 0.000000
H -1.136658 -4.368750 0.000000
H 8.216416 -0.768750 0.000000
H -3.215119 -3.168750 0.000000
H 3.713084 0.431250 0.000000
H 2.154238 1.331250 0.000000
H 8.216416 -3.168750 0.000000
H 6.137955 -4.368750 0.000000
H -4.427555 -1.068750 0.000000
H 1.288213 -4.368750 0.000000
H -6.852426 5.531250 0.000000
H -2.695504 5.531250 0.000000
H -4.773965 6.731250 0.000000
H -1.483069 3.431250 0.000000
H 3.713084 -4.368750 0.000000
H 0.075777 2.531250 0.000000
H -5.639990 1.031250 0.000000