68

C -3.086200 2.068182 0.000000
C -7.935942 6.268182 0.000000
C -7.935942 3.468182 0.000000
C 5.400849 -2.831818 0.000000
C -4.298635 -0.031818 0.000000
C -1.873764 1.368182 0.000000
C -1.873764 -2.831818 0.000000
C -7.935942 2.068182 0.000000
C -6.723506 -0.031818 0.000000
C 6.613285 -0.731818 0.000000
C 10.250592 -0.031818 0.000000
C 1.763543 -2.131818 0.000000
C -4.298635 -2.831818 0.000000
C -0.661328 -2.131818 0.000000
C 9.038156 -2.131818 0.000000
C -1.873764 -0.031818 0.000000
C -3.086200 -0.731818 0.000000
C 6.613285 -2.131818 0.000000
C -6.723506 4.168182 0.000000
C -5.511071 3.468182 0.000000
C -5.511071 -2.131818 0.000000
C 2.975978 -0.031818 0.000000
C -9.148377 4.168182 0.000000
C 11.463027 -0.731818 0.000000
C -4.298635 1.368182 0.000000
C 10.250592 -2.831818 0.000000
C -0.661328 -0.731818 0.000000
C -3.086200 -2.131818 0.000000
C 1.763543 -0.731818 0.000000
C 11.463027 -2.131818 0.000000
C -6.723506 5.568182 0.000000
C 7.825720 -0.031818 0.000000
C 9.038156 -0.731818 0.000000
C 4.188414 -0.731818 0.000000
C 7.825720 -2.831818 0.000000
C -6.723506 1.368182 0.000000
C 4.188414 -2.131818 0.000000
C 0.551107 -0.031818 0.000000
C -9.148377 5.568182 0.000000
C 5.400849 -0.031818 0.000000
C 2.975978 -2.831818 0.000000
C -5.511071 2.068182 0.000000
C -5.511071 -0.731818 0.000000
C 0.551107 -2.831818 0.000000
H -10.014403 3.668182 0.000000
H 2.975978 0.968182 0.000000
H 10.250592 0.968182 0.000000
H -4.298635 -3.831818 0.000000
H 5.400849 -3.831818 0.000000
H 7.825720 0.968182 0.000000
H -6.377096 -2.631818 0.000000
H 0.551107 0.968182 0.000000
H -1.007739 1.868182 0.000000
H 10.250592 -3.831818 0.000000
H 2.975978 -3.831818 0.000000
H -7.589532 -0.531818 0.000000
H -1.873764 -3.831818 0.000000
H -10.014403 6.068182 0.000000
H -7.935942 7.268182 0.000000
H -5.857481 6.068182 0.000000
H 5.400849 0.968182 0.000000
H -4.645045 3.968182 0.000000
H 12.329053 -0.231818 0.000000
H 7.825720 -3.831818 0.000000
H 0.551107 -3.831818 0.000000
H -3.086200 3.068182 0.000000
H -8.801967 1.568182 0.000000
H 12.329053 -2.631818 0.000000