62

C -2.000519 1.925000 0.000000
C -6.850261 6.125000 0.000000
C -6.850261 3.325000 0.000000
C 6.486530 -2.975000 0.000000
C -3.212954 -0.175000 0.000000
C -0.788083 1.225000 0.000000
C -0.788083 -2.975000 0.000000
C -6.850261 1.925000 0.000000
C -5.637825 -0.175000 0.000000
C 7.698966 -0.875000 0.000000
C 2.849224 -2.275000 0.000000
C -3.212954 -2.975000 0.000000
C 0.424352 -2.275000 0.000000
C 10.123837 -2.275000 0.000000
C -0.788083 -0.175000 0.000000
C -2.000519 -0.875000 0.000000
C 7.698966 -2.275000 0.000000
C -5.637825 4.025000 0.000000
C -4.425390 3.325000 0.000000
C -4.425390 -2.275000 0.000000
C 4.061659 -0.175000 0.000000
C -8.062697 4.025000 0.000000
C -3.212954 1.225000 0.000000
C 0.424352 -0.875000 0.000000
C -2.000519 -2.275000 0.000000
C 2.849224 -0.875000 0.000000
C -5.637825 5.425000 0.000000
C 8.911401 -0.175000 0.000000
C 10.123837 -0.875000 0.000000
C 5.274095 -0.875000 0.000000
C 8.911401 -2.975000 0.000000
C -5.637825 1.225000 0.000000
C 5.274095 -2.275000 0.000000
C 1.636788 -0.175000 0.000000
C -8.062697 5.425000 0.000000
C 6.486530 -0.175000 0.000000
C 4.061659 -2.975000 0.000000
C -4.425390 1.925000 0.000000
C -4.425390 -0.875000 0.000000
C 1.636788 -2.975000 0.000000
H -8.928722 3.525000 0.000000
H 4.061659 0.825000 0.000000
H -3.212954 -3.975000 0.000000
H 6.486530 -3.975000 0.000000
H 8.911401 0.825000 0.000000
H -5.291415 -2.775000 0.000000
H 1.636788 0.825000 0.000000
H 0.077942 1.725000 0.000000
H 4.061659 -3.975000 0.000000
H 10.989862 -2.775000 0.000000
H 10.989862 -0.375000 0.000000
H -6.503851 -0.675000 0.000000
H -0.788083 -3.975000 0.000000
H -8.928722 5.925000 0.000000
H -6.850261 7.125000 0.000000
H -4.771800 5.925000 0.000000
H 6.486530 0.825000 0.000000
H -3.559364 3.825000 0.000000
H 8.911401 -3.975000 0.000000
H 1.636788 -3.975000 0.000000
H -2.000519 2.925000 0.000000
H -7.716286 1.425000 0.000000