66

C -0.688884 0.206818 0.000000
C -4.326191 2.306818 0.000000
C 1.735987 5.806818 0.000000
C 5.373294 -4.693182 0.000000
C -5.538626 4.406818 0.000000
C -4.326191 -1.893182 0.000000
C 1.735987 1.606818 0.000000
C -0.688884 -3.993182 0.000000
C -3.113755 1.606818 0.000000
C -3.113755 0.206818 0.000000
C 6.585730 -2.593182 0.000000
C 5.373294 -1.893182 0.000000
C 4.160858 -3.993182 0.000000
C 2.948423 6.506818 0.000000
C 0.523552 -4.693182 0.000000
C 1.735987 -3.993182 0.000000
C -0.688884 1.606818 0.000000
C -6.751062 3.706818 0.000000
C 2.948423 3.706818 0.000000
C -3.113755 -3.993182 0.000000
C 1.735987 4.406818 0.000000
C -4.326191 -0.493182 0.000000
C -4.326191 3.706818 0.000000
C -3.113755 -2.593182 0.000000
C -6.751062 2.306818 0.000000
C -1.901319 -4.693182 0.000000
C 0.523552 3.706818 0.000000
C -5.538626 1.606818 0.000000
C 0.523552 -1.893182 0.000000
C -5.538626 0.206818 0.000000
C -1.901319 -1.893182 0.000000
C -1.901319 -0.493182 0.000000
C 4.160858 5.806818 0.000000
C 6.585730 -3.993182 0.000000
C 4.160858 4.406818 0.000000
C 2.948423 -1.893182 0.000000
C 4.160858 -2.593182 0.000000
C 1.735987 -2.593182 0.000000
C 0.523552 -0.493182 0.000000
C 1.735987 0.206818 0.000000
C 0.523552 2.306818 0.000000
C 2.948423 -4.693182 0.000000
C 2.948423 2.306818 0.000000
C -0.688884 -2.593182 0.000000
H 5.373294 -0.893182 0.000000
H 5.026884 6.306818 0.000000
H -5.192216 -2.393182 0.000000
H 0.523552 -5.693182 0.000000
H -7.617087 1.806818 0.000000
H 0.869962 6.306818 0.000000
H 2.948423 -5.693182 0.000000
H 2.602013 -0.293182 0.000000
H -1.901319 -5.693182 0.000000
H 3.814448 1.806818 0.000000
H -6.404652 -0.293182 0.000000
H 5.373294 -5.693182 0.000000
H -1.554909 2.106818 0.000000
H -3.460165 4.206818 0.000000
H 7.451755 -2.093182 0.000000
H 5.026884 3.906818 0.000000
H -5.538626 5.406818 0.000000
H -7.617087 4.206818 0.000000
H 2.948423 7.506818 0.000000
H -0.342474 4.206818 0.000000
H 7.451755 -4.493182 0.000000
H -3.979780 -4.493182 0.000000