72

C 2.374353 -1.050000 0.000000
C -2.475389 0.350000 0.000000
C 3.586789 -3.150000 0.000000
C -7.325132 3.150000 0.000000
C -1.262954 -3.150000 0.000000
C -6.112696 5.250000 0.000000
C 4.799224 -3.850000 0.000000
C 6.011660 -3.150000 0.000000
C 4.799224 -1.050000 0.000000
C -6.112696 6.650000 0.000000
C 1.161917 2.450000 0.000000
C -6.112696 1.050000 0.000000
C -3.687825 -3.150000 0.000000
C -3.687825 2.450000 0.000000
C -1.262954 2.450000 0.000000
C -6.112696 2.450000 0.000000
C 2.374353 -3.850000 0.000000
C 1.161917 -3.150000 0.000000
C 10.861402 -3.150000 0.000000
C 9.648966 -1.050000 0.000000
C 3.586789 -1.750000 0.000000
C -1.262954 1.050000 0.000000
C -0.050518 3.150000 0.000000
C -0.050518 0.350000 0.000000
C -8.537567 5.250000 0.000000
C -0.050518 -1.050000 0.000000
C -0.050518 -3.850000 0.000000
C -8.537567 6.650000 0.000000
C 8.436531 -3.150000 0.000000
C -4.900260 -1.050000 0.000000
C -7.325132 4.550000 0.000000
C -4.900260 3.150000 0.000000
C 7.224095 -1.050000 0.000000
C 10.861402 -1.750000 0.000000
C -4.900260 0.350000 0.000000
C 9.648966 -3.850000 0.000000
C -2.475389 -3.850000 0.000000
C 6.011660 -1.750000 0.000000
C -3.687825 -1.750000 0.000000
C 1.161917 1.050000 0.000000
C -3.687825 1.050000 0.000000
C 7.224095 -3.850000 0.000000
C -7.325132 7.350000 0.000000
C 8.436531 -1.750000 0.000000
C -4.900260 4.550000 0.000000
C -2.475389 -1.050000 0.000000
C 1.161917 -1.750000 0.000000
C -1.262954 -1.750000 0.000000
H 2.027943 0.550000 0.000000
H -4.553850 -3.650000 0.000000
H 2.374353 -4.850000 0.000000
H -7.325132 8.350000 0.000000
H -0.050518 4.150000 0.000000
H -0.050518 -4.850000 0.000000
H -2.475389 -4.850000 0.000000
H -5.246671 7.150000 0.000000
H -5.766286 -1.550000 0.000000
H 9.648966 -4.850000 0.000000
H 4.799224 -0.050000 0.000000
H 11.727427 -1.250000 0.000000
H 9.648966 -0.050000 0.000000
H -6.978721 0.550000 0.000000
H 7.224095 -4.850000 0.000000
H -4.034235 5.050000 0.000000
H 2.027943 2.950000 0.000000
H 7.224095 -0.050000 0.000000
H -9.403593 4.750000 0.000000
H -2.128979 2.950000 0.000000
H 4.799224 -4.850000 0.000000
H 11.727427 -3.650000 0.000000
H -9.403593 7.150000 0.000000
H -8.191157 2.650000 0.000000