90

C -2.384457 0.490000 0.000000
C -6.021763 2.590000 0.000000
C 6.102592 -4.410000 0.000000
C 0.040415 6.090000 0.000000
C 3.677721 -4.410000 0.000000
C 12.164770 -3.710000 0.000000
C -7.234199 4.690000 0.000000
C -6.021763 -1.610000 0.000000
C -2.384457 -3.710000 0.000000
C 0.040415 1.890000 0.000000
C -4.809328 1.890000 0.000000
C -4.809328 0.490000 0.000000
C 7.315028 -2.310000 0.000000
C 7.315028 -3.710000 0.000000
C 4.890157 -2.310000 0.000000
C 3.677721 -1.610000 0.000000
C 12.164770 -2.310000 0.000000
C 2.465286 -3.710000 0.000000
C 9.739899 -2.310000 0.000000
C 1.252850 6.790000 0.000000
C 8.527463 -1.610000 0.000000
C 10.952335 -1.610000 0.000000
C -1.172021 -4.410000 0.000000
C 0.040415 -3.710000 0.000000
C -2.384457 1.890000 0.000000
C 9.739899 -3.710000 0.000000
C -8.446634 3.990000 0.000000
C 1.252850 3.990000 0.000000
C -4.809328 -3.710000 0.000000
C 0.040415 4.690000 0.000000
C -6.021763 -0.210000 0.000000
C -6.021763 3.990000 0.000000
C -4.809328 -2.310000 0.000000
C -9.659070 6.090000 0.000000
C -8.446634 2.590000 0.000000
C -3.596892 -4.410000 0.000000
C -1.172021 3.990000 0.000000
C -7.234199 1.890000 0.000000
C -1.172021 -1.610000 0.000000
C 10.952335 -4.410000 0.000000
C -7.234199 0.490000 0.000000
C 6.102592 -1.610000 0.000000
C -3.596892 -1.610000 0.000000
C -3.596892 -0.210000 0.000000
C 2.465286 6.090000 0.000000
C 4.890157 -3.710000 0.000000
C 2.465286 4.690000 0.000000
C 1.252850 -1.610000 0.000000
C 2.465286 -2.310000 0.000000
C -7.234199 6.090000 0.000000
C -9.659070 4.690000 0.000000
C 8.527463 -4.410000 0.000000
C 0.040415 -2.310000 0.000000
C -1.172021 -0.210000 0.000000
C 0.040415 0.490000 0.000000
C -1.172021 2.590000 0.000000
C 1.252850 -4.410000 0.000000
C 1.252850 2.590000 0.000000
C -2.384457 -2.310000 0.000000
C -8.446634 6.790000 0.000000
H 3.677721 -0.610000 0.000000
H 10.952335 -0.610000 0.000000
H 3.331311 6.590000 0.000000
H 8.527463 -5.410000 0.000000
H 8.527463 -0.610000 0.000000
H -6.887789 -2.110000 0.000000
H -1.172021 -5.410000 0.000000
H -9.312660 2.090000 0.000000
H -0.825611 6.590000 0.000000
H -10.525095 4.190000 0.000000
H 1.252850 -5.410000 0.000000
H 0.906440 -0.010000 0.000000
H -3.596892 -5.410000 0.000000
H 6.102592 -0.610000 0.000000
H 2.118875 2.090000 0.000000
H -8.100224 -0.010000 0.000000
H -8.446634 7.790000 0.000000
H 3.677721 -5.410000 0.000000
H -3.250482 2.390000 0.000000
H 6.102592 -5.410000 0.000000
H -10.525095 6.590000 0.000000
H -5.155738 4.490000 0.000000
H 10.952335 -5.410000 0.000000
H 3.331311 4.190000 0.000000
H -6.368173 6.590000 0.000000
H 1.252850 7.790000 0.000000
H 13.030796 -4.210000 0.000000
H 13.030796 -1.810000 0.000000
H -2.038046 4.490000 0.000000
H -5.675353 -4.210000 0.000000