78

C -0.792746 0.026923 0.000000
C -4.430053 2.126923 0.000000
C 7.694303 -4.873077 0.000000
C 1.632125 5.626923 0.000000
C 5.269431 -4.873077 0.000000
C -5.642489 4.226923 0.000000
C -4.430053 -2.073077 0.000000
C -0.792746 -4.173077 0.000000
C 1.632125 1.426923 0.000000
C -3.217617 1.426923 0.000000
C -3.217617 0.026923 0.000000
C 8.906738 -2.773077 0.000000
C 8.906738 -4.173077 0.000000
C 6.481867 -2.773077 0.000000
C 5.269431 -2.073077 0.000000
C 4.056996 -4.173077 0.000000
C 2.844560 6.326923 0.000000
C 0.419689 -4.873077 0.000000
C 1.632125 -4.173077 0.000000
C -0.792746 1.426923 0.000000
C -6.854924 3.526923 0.000000
C 2.844560 3.526923 0.000000
C -3.217617 -4.173077 0.000000
C 1.632125 4.226923 0.000000
C -4.430053 -0.673077 0.000000
C -4.430053 3.526923 0.000000
C -3.217617 -2.773077 0.000000
C -8.067360 5.626923 0.000000
C -6.854924 2.126923 0.000000
C -2.005182 -4.873077 0.000000
C 0.419689 3.526923 0.000000
C -5.642489 1.426923 0.000000
C 0.419689 -2.073077 0.000000
C -5.642489 0.026923 0.000000
C 7.694303 -2.073077 0.000000
C -2.005182 -2.073077 0.000000
C -2.005182 -0.673077 0.000000
C 4.056996 5.626923 0.000000
C 6.481867 -4.173077 0.000000
C 4.056996 4.226923 0.000000
C 2.844560 -2.073077 0.000000
C 4.056996 -2.773077 0.000000
C -5.642489 5.626923 0.000000
C -8.067360 4.226923 0.000000
C 1.632125 -2.773077 0.000000
C 0.419689 -0.673077 0.000000
C 1.632125 0.026923 0.000000
C 0.419689 2.126923 0.000000
C 2.844560 -4.873077 0.000000
C 2.844560 2.126923 0.000000
C -0.792746 -2.773077 0.000000
C -6.854924 6.326923 0.000000
H 5.269431 -1.073077 0.000000
H 4.923021 6.126923 0.000000
H 9.772764 -2.273077 0.000000
H -5.296078 -2.573077 0.000000
H 0.419689 -5.873077 0.000000
H -7.720950 1.626923 0.000000
H 0.766099 6.126923 0.000000
H -8.933385 3.726923 0.000000
H 2.844560 -5.873077 0.000000
H 2.498150 -0.473077 0.000000
H -2.005182 -5.873077 0.000000
H 7.694303 -1.073077 0.000000
H 3.710586 1.626923 0.000000
H -6.508514 -0.473077 0.000000
H -6.854924 7.326923 0.000000
H 5.269431 -5.873077 0.000000
H 9.772764 -4.673077 0.000000
H -1.658772 1.926923 0.000000
H 7.694303 -5.873077 0.000000
H -8.933385 6.126923 0.000000
H -3.564028 4.026923 0.000000
H 4.923021 3.726923 0.000000
H -4.776463 6.126923 0.000000
H 2.844560 7.326923 0.000000
H -0.446336 4.026923 0.000000
H -4.083643 -4.673077 0.000000