84

C -7.123059 6.512500 0.000000
C -3.485752 -1.187500 0.000000
C 12.275910 -3.287500 0.000000
C -5.910623 3.012500 0.000000
C -1.060881 0.212500 0.000000
C 9.851039 -3.287500 0.000000
C -7.123059 0.912500 0.000000
C 11.063475 -3.987500 0.000000
C -9.547930 6.512500 0.000000
C 11.063475 -1.187500 0.000000
C -8.335495 7.212500 0.000000
C 3.788861 -3.987500 0.000000
C -8.335495 3.012500 0.000000
C -5.910623 -1.187500 0.000000
C -1.060881 -1.187500 0.000000
C -3.485752 0.212500 0.000000
C -1.060881 -3.987500 0.000000
C 0.151554 5.112500 0.000000
C 0.151554 -1.887500 0.000000
C 0.151554 0.912500 0.000000
C 5.001297 -1.887500 0.000000
C 2.576426 -1.887500 0.000000
C -9.547930 5.112500 0.000000
C -7.123059 5.112500 0.000000
C 1.363990 -1.187500 0.000000
C 5.001297 -3.287500 0.000000
C 0.151554 2.312500 0.000000
C 6.213732 -3.987500 0.000000
C -4.698188 2.312500 0.000000
C 7.426168 -1.887500 0.000000
C 8.638603 -1.187500 0.000000
C -3.485752 -3.987500 0.000000
C 3.788861 -1.187500 0.000000
C -2.273317 2.312500 0.000000
C 0.151554 -3.287500 0.000000
C 2.576426 -3.287500 0.000000
C 8.638603 -3.987500 0.000000
C -4.698188 -3.287500 0.000000
C -1.060881 3.012500 0.000000
C -4.698188 -1.887500 0.000000
C 1.363990 4.412500 0.000000
C -7.123059 2.312500 0.000000
C -8.335495 4.412500 0.000000
C -4.698188 0.912500 0.000000
C -5.910623 4.412500 0.000000
C -5.910623 0.212500 0.000000
C -2.273317 -1.887500 0.000000
C 9.851039 -1.887500 0.000000
C 7.426168 -3.287500 0.000000
C 12.275910 -1.887500 0.000000
C 6.213732 -1.187500 0.000000
C 1.363990 3.012500 0.000000
C -2.273317 0.912500 0.000000
C -1.060881 4.412500 0.000000
C -2.273317 -3.287500 0.000000
C 1.363990 -3.987500 0.000000
H 2.230015 4.912500 0.000000
H 11.063475 -4.987500 0.000000
H -1.060881 -4.987500 0.000000
H -1.926907 4.912500 0.000000
H -9.201520 2.512500 0.000000
H -5.044598 4.912500 0.000000
H 13.141936 -3.787500 0.000000
H -7.989084 0.412500 0.000000
H -3.139342 2.812500 0.000000
H -6.257034 7.012500 0.000000
H 3.788861 -0.187500 0.000000
H -3.485752 -4.987500 0.000000
H 0.151554 6.112500 0.000000
H 6.213732 -4.987500 0.000000
H 2.230015 2.512500 0.000000
H -10.413955 4.612500 0.000000
H -6.776649 -1.687500 0.000000
H -10.413955 7.012500 0.000000
H 13.141936 -1.387500 0.000000
H 6.213732 -0.187500 0.000000
H -8.335495 8.212500 0.000000
H -5.564213 -3.787500 0.000000
H 3.788861 -4.987500 0.000000
H 11.063475 -0.187500 0.000000
H 8.638603 -0.187500 0.000000
H 1.363990 -4.987500 0.000000
H 1.363990 -0.187500 0.000000
H 8.638603 -4.987500 0.000000