62

C -5.061918 6.632500 0.000000
C -1.424612 -1.067500 0.000000
C -3.849483 3.132500 0.000000
C 1.000259 0.332500 0.000000
C -5.061918 1.032500 0.000000
C -7.486790 6.632500 0.000000
C -6.274354 7.332500 0.000000
C 5.850002 -3.867500 0.000000
C -6.274354 3.132500 0.000000
C -3.849483 -1.067500 0.000000
C 1.000259 -1.067500 0.000000
C -1.424612 0.332500 0.000000
C 1.000259 -3.867500 0.000000
C 2.212695 -1.767500 0.000000
C 7.062437 -1.767500 0.000000
C 4.637566 -1.767500 0.000000
C -7.486790 5.232500 0.000000
C -5.061918 5.232500 0.000000
C 3.425130 -1.067500 0.000000
C 7.062437 -3.167500 0.000000
C 8.274873 -3.867500 0.000000
C -2.637047 2.432500 0.000000
C 9.487308 -1.767500 0.000000
C -1.424612 -3.867500 0.000000
C 5.850002 -1.067500 0.000000
C 2.212695 -3.167500 0.000000
C 4.637566 -3.167500 0.000000
C -2.637047 -3.167500 0.000000
C -2.637047 -1.767500 0.000000
C -5.061918 2.432500 0.000000
C -6.274354 4.532500 0.000000
C -2.637047 1.032500 0.000000
C -3.849483 4.532500 0.000000
C -3.849483 0.332500 0.000000
C -0.212176 -1.767500 0.000000
C 9.487308 -3.167500 0.000000
C 8.274873 -1.067500 0.000000
C -0.212176 1.032500 0.000000
C -0.212176 -3.167500 0.000000
C 3.425130 -3.867500 0.000000
H 1.866285 0.832500 0.000000
H 1.000259 -4.867500 0.000000
H -7.140379 2.632500 0.000000
H -2.983458 5.032500 0.000000
H -5.927944 0.532500 0.000000
H -1.771022 2.932500 0.000000
H -4.195893 7.132500 0.000000
H 5.850002 -0.067500 0.000000
H 10.353334 -1.267500 0.000000
H -1.424612 -4.867500 0.000000
H 8.274873 -4.867500 0.000000
H -8.352815 4.732500 0.000000
H -4.715508 -1.567500 0.000000
H -8.352815 7.132500 0.000000
H 8.274873 -0.067500 0.000000
H -6.274354 8.332500 0.000000
H -3.503073 -3.667500 0.000000
H 10.353334 -3.667500 0.000000
H 5.850002 -4.867500 0.000000
H -0.212176 2.032500 0.000000
H 3.425130 -4.867500 0.000000
H 3.425130 -0.067500 0.000000