68

C -6.089733 6.856818 0.000000
C -2.452426 -0.843182 0.000000
C -4.877298 3.356818 0.000000
C -0.027555 0.556818 0.000000
C 10.884365 -2.943182 0.000000
C -6.089733 1.256818 0.000000
C -8.514604 6.856818 0.000000
C -7.302169 7.556818 0.000000
C 4.822187 -3.643182 0.000000
C -7.302169 3.356818 0.000000
C -4.877298 -0.843182 0.000000
C -0.027555 -0.843182 0.000000
C -2.452426 0.556818 0.000000
C -0.027555 -3.643182 0.000000
C 1.184880 -1.543182 0.000000
C 6.034622 -1.543182 0.000000
C 3.609751 -1.543182 0.000000
C -8.514604 5.456818 0.000000
C -6.089733 5.456818 0.000000
C 2.397316 -0.843182 0.000000
C 6.034622 -2.943182 0.000000
C 7.247058 -3.643182 0.000000
C -3.664862 2.656818 0.000000
C 8.459494 -1.543182 0.000000
C 9.671929 -0.843182 0.000000
C -2.452426 -3.643182 0.000000
C 4.822187 -0.843182 0.000000
C 1.184880 -2.943182 0.000000
C 3.609751 -2.943182 0.000000
C 9.671929 -3.643182 0.000000
C -3.664862 -2.943182 0.000000
C -3.664862 -1.543182 0.000000
C -6.089733 2.656818 0.000000
C -7.302169 4.756818 0.000000
C -3.664862 1.256818 0.000000
C -4.877298 4.756818 0.000000
C -4.877298 0.556818 0.000000
C -1.239991 -1.543182 0.000000
C 10.884365 -1.543182 0.000000
C 8.459494 -2.943182 0.000000
C 7.247058 -0.843182 0.000000
C -1.239991 1.256818 0.000000
C -1.239991 -2.943182 0.000000
C 2.397316 -3.643182 0.000000
H 0.838470 1.056818 0.000000
H -0.027555 -4.643182 0.000000
H -8.168194 2.856818 0.000000
H -4.011272 5.256818 0.000000
H -6.955759 0.756818 0.000000
H -2.798837 3.156818 0.000000
H -5.223708 7.356818 0.000000
H 4.822187 0.156818 0.000000
H -2.452426 -4.643182 0.000000
H 7.247058 -4.643182 0.000000
H -9.380630 4.956818 0.000000
H -5.743323 -1.343182 0.000000
H -9.380630 7.356818 0.000000
H 7.247058 0.156818 0.000000
H -7.302169 8.556818 0.000000
H -4.530887 -3.443182 0.000000
H 4.822187 -4.643182 0.000000
H 11.750390 -3.443182 0.000000
H 9.671929 0.156818 0.000000
H 11.750390 -1.043182 0.000000
H -1.239991 2.256818 0.000000
H 2.397316 -4.643182 0.000000
H 2.397316 0.156818 0.000000
H 9.671929 -4.643182 0.000000