12

C 1.212436 -0.700000 0.000000
C 0.000000 -1.400000 0.000000
C 0.000000 1.400000 0.000000
C -1.212436 0.700000 0.000000
C 1.212436 0.700000 0.000000
C -1.212436 -0.700000 0.000000
H 0.000000 -2.400000 0.000000
H 0.000000 2.400000 0.000000
H -2.078461 1.200000 0.000000
H -2.078461 -1.200000 0.000000
H 2.078461 1.200000 0.000000
H 2.078461 -1.200000 0.000000