72

C -6.931969 6.193478 0.000000
C 1.555080 -2.906522 0.000000
C -10.569275 5.493478 0.000000
C 8.829694 -2.906522 0.000000
C -4.507097 3.393478 0.000000
C 1.555080 1.293478 0.000000
C -10.569275 4.093478 0.000000
C -9.356840 6.193478 0.000000
C 6.404823 -4.306522 0.000000
C 0.342645 -2.206522 0.000000
C 5.192387 -2.206522 0.000000
C 0.342645 -0.806522 0.000000
C -2.082226 3.393478 0.000000
C 8.829694 -4.306522 0.000000
C -3.294662 -0.106522 0.000000
C -8.144404 5.493478 0.000000
C -9.356840 3.393478 0.000000
C 3.979952 -0.106522 0.000000
C -0.869791 -0.106522 0.000000
C 8.829694 -7.106522 0.000000
C 7.617258 -2.206522 0.000000
C 3.979952 -2.906522 0.000000
C -5.719533 4.093478 0.000000
C 10.042129 -5.006522 0.000000
C -8.144404 4.093478 0.000000
C 2.767516 -2.206522 0.000000
C 7.617258 -6.406522 0.000000
C -4.507097 1.993478 0.000000
C 7.617258 -5.006522 0.000000
C -6.931969 1.993478 0.000000
C -6.931969 3.393478 0.000000
C -3.294662 1.293478 0.000000
C 5.192387 -5.006522 0.000000
C 1.555080 -0.106522 0.000000
C 5.192387 -0.806522 0.000000
C -3.294662 4.093478 0.000000
C -0.869791 1.293478 0.000000
C 2.767516 -0.806522 0.000000
C 6.404823 -2.906522 0.000000
C 3.979952 -4.306522 0.000000
C 0.342645 1.993478 0.000000
C -5.719533 5.493478 0.000000
C -5.719533 1.293478 0.000000
C 10.042129 -6.406522 0.000000
C -2.082226 -0.806522 0.000000
C -2.082226 1.993478 0.000000
H -4.853508 5.993478 0.000000
H 10.908155 -6.906522 0.000000
H 3.979952 0.893478 0.000000
H -2.082226 -1.806522 0.000000
H -11.435301 3.593478 0.000000
H -3.294662 5.093478 0.000000
H -7.797994 1.493478 0.000000
H 8.829694 -8.106522 0.000000
H 6.058412 -0.306522 0.000000
H 0.342645 2.993478 0.000000
H 5.192387 -6.006522 0.000000
H 6.751233 -6.906522 0.000000
H -9.356840 2.393478 0.000000
H 2.421106 1.793478 0.000000
H 10.908155 -4.506522 0.000000
H 3.113926 -4.806522 0.000000
H 7.617258 -1.206522 0.000000
H -4.160687 -0.606522 0.000000
H -9.356840 7.193478 0.000000
H -0.523381 -2.706522 0.000000
H -11.435301 5.993478 0.000000
H -6.931969 7.193478 0.000000
H -1.216201 3.893478 0.000000
H -5.719533 0.293478 0.000000
H 1.555080 -3.906522 0.000000
H 9.695719 -2.406522 0.000000