24

C -0.346410 3.500000 0.000000
C 0.866025 2.800000 0.000000
C 0.866025 1.400000 0.000000
C -1.558846 -1.400000 0.000000
C -0.346410 -0.700000 0.000000
C -0.346410 -3.500000 0.000000
C 0.866025 -1.400000 0.000000
C -1.558846 1.400000 0.000000
C 2.078461 -0.700000 0.000000
C -1.558846 2.800000 0.000000
C -1.558846 -2.800000 0.000000
C 0.866025 -2.800000 0.000000
C -0.346410 0.700000 0.000000
C 2.078461 0.700000 0.000000
H 1.732051 3.300000 0.000000
H -0.346410 4.500000 0.000000
H -2.424871 -3.300000 0.000000
H -2.424871 0.900000 0.000000
H 2.944486 -1.200000 0.000000
H 1.732051 -3.300000 0.000000
H -2.424871 -0.900000 0.000000
H 2.944486 1.200000 0.000000
H -0.346410 -4.500000 0.000000
H -2.424871 3.300000 0.000000
