54

C -9.699485 -0.700000 0.000000
C 3.637307 -1.400000 0.000000
C -4.849742 0.700000 0.000000
C -7.274613 0.700000 0.000000
C -3.637307 -1.400000 0.000000
C 2.424871 0.700000 0.000000
C 9.699485 -0.700000 0.000000
C 1.212436 -1.400000 0.000000
C -3.637307 1.400000 0.000000
C 6.062178 -1.400000 0.000000
C 2.424871 -0.700000 0.000000
C -1.212436 -1.400000 0.000000
C 1.212436 1.400000 0.000000
C 4.849742 0.700000 0.000000
C -4.849742 -0.700000 0.000000
C -6.062178 1.400000 0.000000
C -1.212436 1.400000 0.000000
C 6.062178 1.400000 0.000000
C 8.487049 1.400000 0.000000
C 8.487049 -1.400000 0.000000
C 9.699485 0.700000 0.000000
C -8.487049 1.400000 0.000000
C -7.274613 -0.700000 0.000000
C -2.424871 -0.700000 0.000000
C -8.487049 -1.400000 0.000000
C -6.062178 -1.400000 0.000000
C -2.424871 0.700000 0.000000
C -9.699485 0.700000 0.000000
C 0.000000 -0.700000 0.000000
C 0.000000 0.700000 0.000000
C 4.849742 -0.700000 0.000000
C 7.274613 0.700000 0.000000
C 3.637307 1.400000 0.000000
C 7.274613 -0.700000 0.000000
H 10.565510 -1.200000 0.000000
H -10.565510 -1.200000 0.000000
H -10.565510 1.200000 0.000000
H -6.062178 -2.400000 0.000000
H 8.487049 2.400000 0.000000
H 3.637307 2.400000 0.000000
H 6.062178 2.400000 0.000000
H -1.212436 -2.400000 0.000000
H -8.487049 -2.400000 0.000000
H 1.212436 -2.400000 0.000000
H -3.637307 2.400000 0.000000
H 10.565510 1.200000 0.000000
H 8.487049 -2.400000 0.000000
H -3.637307 -2.400000 0.000000
H -8.487049 2.400000 0.000000
H 1.212436 2.400000 0.000000
H -6.062178 2.400000 0.000000
H 3.637307 -2.400000 0.000000
H -1.212436 2.400000 0.000000
H 6.062178 -2.400000 0.000000