74

C 3.637307 -2.800000 0.000000
C 6.062178 -2.800000 0.000000
C 6.062178 2.800000 0.000000
C 1.212436 1.400000 0.000000
C 6.062178 -1.400000 0.000000
C -3.637307 -1.400000 0.000000
C -2.424871 0.700000 0.000000
C 7.274613 3.500000 0.000000
C 2.424871 -3.500000 0.000000
C -1.212436 -1.400000 0.000000
C 1.212436 -1.400000 0.000000
C -1.212436 1.400000 0.000000
C 0.000000 -3.500000 0.000000
C -4.849742 3.500000 0.000000
C 0.000000 -0.700000 0.000000
C -6.062178 1.400000 0.000000
C -1.212436 2.800000 0.000000
C -4.849742 -3.500000 0.000000
C 7.274613 0.700000 0.000000
C 8.487049 2.800000 0.000000
C -6.062178 2.800000 0.000000
C 4.849742 0.700000 0.000000
C -2.424871 3.500000 0.000000
C -4.849742 -0.700000 0.000000
C -8.487049 -2.800000 0.000000
C -6.062178 -2.800000 0.000000
C 8.487049 1.400000 0.000000
C 2.424871 0.700000 0.000000
C 1.212436 -2.800000 0.000000
C -8.487049 -1.400000 0.000000
C 7.274613 -0.700000 0.000000
C -3.637307 -2.800000 0.000000
C -7.274613 0.700000 0.000000
C 4.849742 3.500000 0.000000
C -7.274613 -0.700000 0.000000
C -2.424871 -3.500000 0.000000
C -6.062178 -1.400000 0.000000
C 4.849742 -3.500000 0.000000
C -1.212436 -2.800000 0.000000
C -7.274613 -3.500000 0.000000
C 3.637307 1.400000 0.000000
C 3.637307 2.800000 0.000000
C -3.637307 1.400000 0.000000
C 2.424871 -0.700000 0.000000
C 4.849742 -0.700000 0.000000
C 6.062178 1.400000 0.000000
C 0.000000 0.700000 0.000000
C 1.212436 2.800000 0.000000
C 0.000000 3.500000 0.000000
C 3.637307 -1.400000 0.000000
C -4.849742 0.700000 0.000000
C -2.424871 -0.700000 0.000000
C -3.637307 2.800000 0.000000
C 2.424871 3.500000 0.000000
H 0.000000 -4.500000 0.000000
H 8.140639 -1.200000 0.000000
H -9.353074 -3.300000 0.000000
H 7.274613 4.500000 0.000000
H 0.000000 4.500000 0.000000
H 2.424871 -4.500000 0.000000
H 9.353074 3.300000 0.000000
H 6.928203 -3.300000 0.000000
H 4.849742 4.500000 0.000000
H -4.849742 -4.500000 0.000000
H 4.849742 -4.500000 0.000000
H 9.353074 0.900000 0.000000
H -9.353074 -0.900000 0.000000
H -2.424871 4.500000 0.000000
H -6.928203 3.300000 0.000000
H -8.140639 1.200000 0.000000
H -4.849742 4.500000 0.000000
H -2.424871 -4.500000 0.000000
H -7.274613 -4.500000 0.000000
H 2.424871 4.500000 0.000000