64

C 4.849742 -2.800000 0.000000
C 7.274613 2.800000 0.000000
C 2.424871 1.400000 0.000000
C -2.424871 -1.400000 0.000000
C -1.212436 0.700000 0.000000
C 3.637307 -3.500000 0.000000
C 0.000000 -1.400000 0.000000
C 2.424871 -1.400000 0.000000
C 0.000000 1.400000 0.000000
C 1.212436 -3.500000 0.000000
C -3.637307 3.500000 0.000000
C 1.212436 -0.700000 0.000000
C -4.849742 1.400000 0.000000
C 0.000000 2.800000 0.000000
C -3.637307 -3.500000 0.000000
C -4.849742 2.800000 0.000000
C 6.062178 0.700000 0.000000
C -1.212436 3.500000 0.000000
C -3.637307 -0.700000 0.000000
C -7.274613 -2.800000 0.000000
C -4.849742 -2.800000 0.000000
C 3.637307 0.700000 0.000000
C 2.424871 -2.800000 0.000000
C -7.274613 -1.400000 0.000000
C -2.424871 -2.800000 0.000000
C -6.062178 0.700000 0.000000
C 6.062178 3.500000 0.000000
C -6.062178 -0.700000 0.000000
C -1.212436 -3.500000 0.000000
C -4.849742 -1.400000 0.000000
C 0.000000 -2.800000 0.000000
C -6.062178 -3.500000 0.000000
C 4.849742 1.400000 0.000000
C 4.849742 2.800000 0.000000
C 6.062178 -0.700000 0.000000
C -2.424871 1.400000 0.000000
C 3.637307 -0.700000 0.000000
C 7.274613 1.400000 0.000000
C 1.212436 0.700000 0.000000
C 2.424871 2.800000 0.000000
C 1.212436 3.500000 0.000000
C 4.849742 -1.400000 0.000000
C -3.637307 0.700000 0.000000
C -1.212436 -0.700000 0.000000
C -2.424871 2.800000 0.000000
C 3.637307 3.500000 0.000000
H 1.212436 -4.500000 0.000000
H -8.140639 -3.300000 0.000000
H 1.212436 4.500000 0.000000
H 3.637307 -4.500000 0.000000
H 5.715768 -3.300000 0.000000
H 6.062178 4.500000 0.000000
H -3.637307 -4.500000 0.000000
H -8.140639 -0.900000 0.000000
H 6.928203 -1.200000 0.000000
H 8.140639 3.300000 0.000000
H -1.212436 4.500000 0.000000
H -5.715768 3.300000 0.000000
H 8.140639 0.900000 0.000000
H -6.928203 1.200000 0.000000
H -3.637307 4.500000 0.000000
H -6.062178 -4.500000 0.000000
H -1.212436 -4.500000 0.000000
H 3.637307 4.500000 0.000000