184

C 14.549227 2.800000 0.000000
C 1.212436 -0.700000 0.000000
C 3.637307 0.700000 0.000000
C 21.823840 1.400000 0.000000
C 10.911920 -3.500000 0.000000
C 13.336791 -0.700000 0.000000
C -6.062178 0.700000 0.000000
C -16.974098 1.400000 0.000000
C 7.274613 -2.800000 0.000000
C 6.062178 -0.700000 0.000000
C -19.398969 -1.400000 0.000000
C -15.761662 3.500000 0.000000
C -9.699485 -2.800000 0.000000
C 1.212436 0.700000 0.000000
C 18.186533 -3.500000 0.000000
C -2.424871 -1.400000 0.000000
C -10.911920 0.700000 0.000000
C 3.637307 -3.500000 0.000000
C 4.849742 1.400000 0.000000
C 2.424871 -2.800000 0.000000
C 15.761662 -3.500000 0.000000
C -3.637307 -0.700000 0.000000
C -13.336791 3.500000 0.000000
C 21.823840 2.800000 0.000000
C 15.761662 0.700000 0.000000
C 12.124356 1.400000 0.000000
C -7.274613 -1.400000 0.000000
C 8.487049 0.700000 0.000000
C 13.336791 0.700000 0.000000
C 9.699485 2.800000 0.000000
C -10.911920 -3.500000 0.000000
C -10.911920 -0.700000 0.000000
C 2.424871 2.800000 0.000000
C -2.424871 1.400000 0.000000
C 18.186533 -0.700000 0.000000
C 8.487049 -3.500000 0.000000
C 4.849742 2.800000 0.000000
C -8.487049 3.500000 0.000000
C -12.124356 2.800000 0.000000
C -4.849742 -2.800000 0.000000
C 15.761662 -0.700000 0.000000
C 14.549227 -1.400000 0.000000
C -18.186533 -3.500000 0.000000
C -3.637307 3.500000 0.000000
C -1.212436 -0.700000 0.000000
C -12.124356 -1.400000 0.000000
C 14.549227 1.400000 0.000000
C 6.062178 0.700000 0.000000
C 15.761662 3.500000 0.000000
C 0.000000 -1.400000 0.000000
C -9.699485 1.400000 0.000000
C 8.487049 3.500000 0.000000
C 19.398969 1.400000 0.000000
C -16.974098 2.800000 0.000000
C -18.186533 3.500000 0.000000
C -14.549227 -1.400000 0.000000
C 13.336791 -3.500000 0.000000
C 0.000000 -2.800000 0.000000
C -14.549227 -2.800000 0.000000
C 8.487049 -0.700000 0.000000
C -7.274613 1.400000 0.000000
C -16.974098 -1.400000 0.000000
C -10.911920 3.500000 0.000000
C 19.398969 -2.800000 0.000000
C -19.398969 -2.800000 0.000000
C 7.274613 -1.400000 0.000000
C 1.212436 -3.500000 0.000000
C 2.424871 -1.400000 0.000000
C -15.761662 -0.700000 0.000000
C 4.849742 -2.800000 0.000000
C -4.849742 1.400000 0.000000
C -20.611405 0.700000 0.000000
C -21.823840 -2.800000 0.000000
C 6.062178 3.500000 0.000000
C 13.336791 3.500000 0.000000
C 18.186533 0.700000 0.000000
C 16.974098 -2.800000 0.000000
C 12.124356 -2.800000 0.000000
C -8.487049 -3.500000 0.000000
C -9.699485 -1.400000 0.000000
C 3.637307 3.500000 0.000000
C -3.637307 -3.500000 0.000000
C 20.611405 3.500000 0.000000
C -9.699485 2.800000 0.000000
C -18.186533 -0.700000 0.000000
C -15.761662 -3.500000 0.000000
C 10.911920 -0.700000 0.000000
C 9.699485 1.400000 0.000000
C 10.911920 3.500000 0.000000
C -4.849742 2.800000 0.000000
C 16.974098 1.400000 0.000000
C -6.062178 -0.700000 0.000000
C 19.398969 2.800000 0.000000
C 16.974098 -1.400000 0.000000
C 0.000000 2.800000 0.000000
C -20.611405 -0.700000 0.000000
C -14.549227 1.400000 0.000000
C 4.849742 -1.400000 0.000000
C 0.000000 1.400000 0.000000
C 1.212436 3.500000 0.000000
C -13.336791 0.700000 0.000000
C 9.699485 -1.400000 0.000000
C -14.549227 2.800000 0.000000
C 9.699485 -2.800000 0.000000
C 7.274613 2.800000 0.000000
C -1.212436 3.500000 0.000000
C -6.062178 3.500000 0.000000
C 16.974098 2.800000 0.000000
C -3.637307 0.700000 0.000000
C -19.398969 1.400000 0.000000
C 12.124356 -1.400000 0.000000
C -13.336791 -3.500000 0.000000
C 18.186533 3.500000 0.000000
C -1.212436 -3.500000 0.000000
C 14.549227 -2.800000 0.000000
C -2.424871 -2.800000 0.000000
C -7.274613 -2.800000 0.000000
C -4.849742 -1.400000 0.000000
C -21.823840 -1.400000 0.000000
C -12.124356 1.400000 0.000000
C -16.974098 -2.800000 0.000000
C -8.487049 0.700000 0.000000
C -18.186533 0.700000 0.000000
C -12.124356 -2.800000 0.000000
C 7.274613 1.400000 0.000000
C -8.487049 -0.700000 0.000000
C 20.611405 -0.700000 0.000000
C -2.424871 2.800000 0.000000
C -1.212436 0.700000 0.000000
C 2.424871 1.400000 0.000000
C 12.124356 2.800000 0.000000
C -20.611405 -3.500000 0.000000
C 6.062178 -3.500000 0.000000
C 19.398969 -1.400000 0.000000
C -19.398969 2.800000 0.000000
C 20.611405 0.700000 0.000000
C -6.062178 -3.500000 0.000000
C -7.274613 2.800000 0.000000
C -13.336791 -0.700000 0.000000
C -15.761662 0.700000 0.000000
C 10.911920 0.700000 0.000000
C 3.637307 -0.700000 0.000000
H 1.212436 -4.500000 0.000000
H 8.487049 4.500000 0.000000
H 10.911920 4.500000 0.000000
H 1.212436 4.500000 0.000000
H 20.611405 4.500000 0.000000
H -6.062178 -4.500000 0.000000
H -1.212436 -4.500000 0.000000
H 8.487049 -4.500000 0.000000
H -20.264994 3.300000 0.000000
H -8.487049 4.500000 0.000000
H 3.637307 -4.500000 0.000000
H -18.186533 4.500000 0.000000
H -10.911920 4.500000 0.000000
H -1.212436 4.500000 0.000000
H -22.689866 -3.300000 0.000000
H 13.336791 4.500000 0.000000
H 22.689866 3.300000 0.000000
H -15.761662 4.500000 0.000000
H -15.761662 -4.500000 0.000000
H 13.336791 -4.500000 0.000000
H 6.062178 4.500000 0.000000
H -18.186533 -4.500000 0.000000
H -13.336791 -4.500000 0.000000
H -20.611405 -4.500000 0.000000
H 18.186533 4.500000 0.000000
H -22.689866 -0.900000 0.000000
H 15.761662 4.500000 0.000000
H 6.062178 -4.500000 0.000000
H -3.637307 -4.500000 0.000000
H 10.911920 -4.500000 0.000000
H 22.689866 0.900000 0.000000
H -10.911920 -4.500000 0.000000
H 20.264994 -3.300000 0.000000
H 15.761662 -4.500000 0.000000
H -21.477430 1.200000 0.000000
H -6.062178 4.500000 0.000000
H 3.637307 4.500000 0.000000
H 18.186533 -4.500000 0.000000
H -3.637307 4.500000 0.000000
H 21.477430 -1.200000 0.000000
H -13.336791 4.500000 0.000000
H -8.487049 -4.500000 0.000000