42

C -0.606218 -1.750000 0.000000
C 1.818653 -1.750000 0.000000
C 0.606218 1.750000 0.000000
C 3.031089 4.550000 0.000000
C 1.818653 -0.350000 0.000000
C -1.818653 -2.450000 0.000000
C 4.243524 2.450000 0.000000
C 0.606218 -2.450000 0.000000
C 1.818653 2.450000 0.000000
C -4.243524 -2.450000 0.000000
C -0.606218 -4.550000 0.000000
C 0.606218 4.550000 0.000000
C 0.606218 0.350000 0.000000
C -3.031089 -4.550000 0.000000
C 1.818653 3.850000 0.000000
C 4.243524 3.850000 0.000000
C -4.243524 -3.850000 0.000000
C -3.031089 -0.350000 0.000000
C -0.606218 3.850000 0.000000
C 3.031089 1.750000 0.000000
C -0.606218 -0.350000 0.000000
C 3.031089 0.350000 0.000000
C -3.031089 -1.750000 0.000000
C 0.606218 -3.850000 0.000000
C -1.818653 -3.850000 0.000000
C -1.818653 1.750000 0.000000
C -1.818653 0.350000 0.000000
C -0.606218 2.450000 0.000000
H -5.109550 -1.950000 0.000000
H 1.472243 -4.350000 0.000000
H 5.109550 4.350000 0.000000
H -2.684679 2.250000 0.000000
H 0.606218 5.550000 0.000000
H 3.897114 -0.150000 0.000000
H 5.109550 1.950000 0.000000
H -3.031089 -5.550000 0.000000
H -3.897114 0.150000 0.000000
H -1.472243 4.350000 0.000000
H -0.606218 -5.550000 0.000000
H 3.031089 5.550000 0.000000
H 2.684679 -2.250000 0.000000
H -5.109550 -4.350000 0.000000