106

C 6.062178 5.600000 0.000000
C 0.000000 3.500000 0.000000
C -6.062178 2.800000 0.000000
C 2.424871 3.500000 0.000000
C 7.274613 4.900000 0.000000
C 3.637307 -1.400000 0.000000
C -4.849742 3.500000 0.000000
C 3.637307 1.400000 0.000000
C 1.212436 1.400000 0.000000
C 3.637307 5.600000 0.000000
C 4.849742 0.700000 0.000000
C -2.424871 -0.700000 0.000000
C 0.000000 0.700000 0.000000
C 1.212436 5.600000 0.000000
C -8.487049 -5.600000 0.000000
C 2.424871 -3.500000 0.000000
C -3.637307 -1.400000 0.000000
C 6.062178 -2.800000 0.000000
C 6.062178 2.800000 0.000000
C -6.062178 1.400000 0.000000
C 1.212436 -5.600000 0.000000
C -1.212436 5.600000 0.000000
C -4.849742 -3.500000 0.000000
C 3.637307 2.800000 0.000000
C 6.062178 1.400000 0.000000
C -3.637307 5.600000 0.000000
C 6.062178 -1.400000 0.000000
C 8.487049 5.600000 0.000000
C 2.424871 0.700000 0.000000
C 8.487049 2.800000 0.000000
C 4.849742 -0.700000 0.000000
C -1.212436 -5.600000 0.000000
C -4.849742 -4.900000 0.000000
C 1.212436 2.800000 0.000000
C -1.212436 2.800000 0.000000
C 4.849742 3.500000 0.000000
C -4.849742 4.900000 0.000000
C -2.424871 3.500000 0.000000
C -9.699485 -4.900000 0.000000
C 2.424871 -0.700000 0.000000
C -9.699485 -3.500000 0.000000
C -8.487049 -1.400000 0.000000
C 0.000000 -3.500000 0.000000
C -3.637307 1.400000 0.000000
C -7.274613 -0.700000 0.000000
C 7.274613 -0.700000 0.000000
C 7.274613 0.700000 0.000000
C 8.487049 1.400000 0.000000
C 4.849742 -3.500000 0.000000
C 9.699485 4.900000 0.000000
C -6.062178 -2.800000 0.000000
C -7.274613 -4.900000 0.000000
C 0.000000 -4.900000 0.000000
C 9.699485 3.500000 0.000000
C -7.274613 0.700000 0.000000
C -1.212436 -1.400000 0.000000
C 1.212436 -1.400000 0.000000
C 4.849742 4.900000 0.000000
C -4.849742 -0.700000 0.000000
C 7.274613 3.500000 0.000000
C -2.424871 -3.500000 0.000000
C 0.000000 4.900000 0.000000
C -4.849742 0.700000 0.000000
C 3.637307 -2.800000 0.000000
C 4.849742 -4.900000 0.000000
C 2.424871 -4.900000 0.000000
C -3.637307 2.800000 0.000000
C -8.487049 -2.800000 0.000000
C 2.424871 4.900000 0.000000
C -7.274613 -3.500000 0.000000
C -1.212436 -2.800000 0.000000
C 0.000000 -0.700000 0.000000
C -3.637307 -5.600000 0.000000
C 1.212436 -2.800000 0.000000
C -2.424871 -4.900000 0.000000
C 3.637307 -5.600000 0.000000
C -3.637307 -2.800000 0.000000
C -2.424871 4.900000 0.000000
C -6.062178 -1.400000 0.000000
C -2.424871 0.700000 0.000000
C -1.212436 1.400000 0.000000
C -6.062178 -5.600000 0.000000
H -6.062178 -6.600000 0.000000
H 1.212436 -6.600000 0.000000
H 6.928203 -3.300000 0.000000
H 10.565510 5.400000 0.000000
H 3.637307 6.600000 0.000000
H 8.487049 6.600000 0.000000
H 9.353074 0.900000 0.000000
H -10.565510 -5.400000 0.000000
H 6.062178 6.600000 0.000000
H 3.637307 -6.600000 0.000000
H -10.565510 -3.000000 0.000000
H 8.140639 -1.200000 0.000000
H -5.715768 5.400000 0.000000
H -3.637307 -6.600000 0.000000
H -9.353074 -0.900000 0.000000
H -1.212436 6.600000 0.000000
H 10.565510 3.000000 0.000000
H -6.928203 3.300000 0.000000
H -1.212436 -6.600000 0.000000
H -8.487049 -6.600000 0.000000
H 1.212436 6.600000 0.000000
H 5.715768 -5.400000 0.000000
H -3.637307 6.600000 0.000000
H -8.140639 1.200000 0.000000