170

C 12.730573 3.850000 0.000000
C -10.305702 1.750000 0.000000
C 1.818653 1.750000 0.000000
C 9.093267 0.350000 0.000000
C -6.668396 -5.950000 0.000000
C 6.668396 -2.450000 0.000000
C 5.455960 -4.550000 0.000000
C -10.305702 -2.450000 0.000000
C 3.031089 2.450000 0.000000
C -6.668396 -1.750000 0.000000
C -9.093267 3.850000 0.000000
C -0.606218 0.350000 0.000000
C 12.730573 6.650000 0.000000
C 1.818653 5.950000 0.000000
C 1.818653 -2.450000 0.000000
C -11.518138 -0.350000 0.000000
C -0.606218 1.750000 0.000000
C 3.031089 -5.950000 0.000000
C -3.031089 5.950000 0.000000
C 6.668396 4.550000 0.000000
C 10.305702 -0.350000 0.000000
C 9.093267 -3.850000 0.000000
C 3.031089 3.850000 0.000000
C -10.305702 0.350000 0.000000
C -12.730573 -6.650000 0.000000
C -5.455960 1.750000 0.000000
C -4.243524 2.450000 0.000000
C 4.243524 -6.650000 0.000000
C 6.668396 -6.650000 0.000000
C -1.818653 -4.550000 0.000000
C -7.880831 -6.650000 0.000000
C 0.606218 3.850000 0.000000
C 7.880831 2.450000 0.000000
C 0.606218 -1.750000 0.000000
C -11.518138 -4.550000 0.000000
C -11.518138 -1.750000 0.000000
C -3.031089 1.750000 0.000000
C -12.730573 -2.450000 0.000000
C 1.818653 -6.650000 0.000000
C 10.305702 3.850000 0.000000
C -5.455960 -3.850000 0.000000
C -5.455960 0.350000 0.000000
C -1.818653 2.450000 0.000000
C -13.943009 -4.550000 0.000000
C 11.518138 0.350000 0.000000
C -5.455960 5.950000 0.000000
C 4.243524 0.350000 0.000000
C -6.668396 -4.550000 0.000000
C -4.243524 -4.550000 0.000000
C 3.031089 -4.550000 0.000000
C 7.880831 3.850000 0.000000
C 3.031089 -0.350000 0.000000
C 1.818653 4.550000 0.000000
C 4.243524 -3.850000 0.000000
C 4.243524 4.550000 0.000000
C 10.305702 6.650000 0.000000
C -0.606218 -3.850000 0.000000
C 7.880831 -5.950000 0.000000
C 3.031089 6.650000 0.000000
C -7.880831 4.550000 0.000000
C 5.455960 -5.950000 0.000000
C 4.243524 1.750000 0.000000
C 0.606218 -4.550000 0.000000
C 4.243524 5.950000 0.000000
C 6.668396 -3.850000 0.000000
C -4.243524 -1.750000 0.000000
C 3.031089 -1.750000 0.000000
C -10.305702 -6.650000 0.000000
C -1.818653 -5.950000 0.000000
C -4.243524 -0.350000 0.000000
C -6.668396 2.450000 0.000000
C 1.818653 0.350000 0.000000
C -0.606218 -2.450000 0.000000
C -0.606218 5.950000 0.000000
C 6.668396 1.750000 0.000000
C 0.606218 -5.950000 0.000000
C -9.093267 -0.350000 0.000000
C 7.880831 -1.750000 0.000000
C 9.093267 1.750000 0.000000
C -1.818653 -0.350000 0.000000
C -7.880831 0.350000 0.000000
C -7.880831 -2.450000 0.000000
C -3.031089 4.550000 0.000000
C -5.455960 -2.450000 0.000000
C -3.031089 -2.450000 0.000000
C 7.880831 -4.550000 0.000000
C -11.518138 -5.950000 0.000000
C 13.943009 4.550000 0.000000
C -7.880831 5.950000 0.000000
C -4.243524 3.850000 0.000000
C -5.455960 4.550000 0.000000
C -9.093267 2.450000 0.000000
C -9.093267 -1.750000 0.000000
C 12.730573 2.450000 0.000000
C 9.093267 5.950000 0.000000
C -4.243524 -5.950000 0.000000
C -3.031089 -6.650000 0.000000
C 5.455960 2.450000 0.000000
C 7.880831 6.650000 0.000000
C 4.243524 -2.450000 0.000000
C 9.093267 -2.450000 0.000000
C 11.518138 4.550000 0.000000
C 6.668396 5.950000 0.000000
C -10.305702 -3.850000 0.000000
C -7.880831 1.750000 0.000000
C 7.880831 -0.350000 0.000000
C 10.305702 2.450000 0.000000
C -12.730573 -3.850000 0.000000
C 10.305702 -1.750000 0.000000
C -13.943009 -5.950000 0.000000
C -4.243524 6.650000 0.000000
C 5.455960 6.650000 0.000000
C -6.668396 6.650000 0.000000
C 5.455960 3.850000 0.000000
C -7.880831 -3.850000 0.000000
C -3.031089 0.350000 0.000000
C -5.455960 -6.650000 0.000000
C 0.606218 -0.350000 0.000000
C 1.818653 -3.850000 0.000000
C -9.093267 -4.550000 0.000000
C 6.668396 0.350000 0.000000
C 13.943009 5.950000 0.000000
C 9.093267 4.550000 0.000000
C -1.818653 6.650000 0.000000
C -0.606218 4.550000 0.000000
C -6.668396 -0.350000 0.000000
C -1.818653 -1.750000 0.000000
C 11.518138 5.950000 0.000000
C 0.606218 6.650000 0.000000
C -3.031089 -3.850000 0.000000
C 11.518138 1.750000 0.000000
C 5.455960 -1.750000 0.000000
C 0.606218 2.450000 0.000000
C -1.818653 3.850000 0.000000
C 5.455960 -0.350000 0.000000
C -6.668396 3.850000 0.000000
C -0.606218 -6.650000 0.000000
C -9.093267 -5.950000 0.000000
H 4.243524 -7.650000 0.000000
H 12.730573 7.650000 0.000000
H -7.880831 -7.650000 0.000000
H 7.880831 7.650000 0.000000
H -12.384163 0.150000 0.000000
H 1.818653 -7.650000 0.000000
H 14.809034 6.450000 0.000000
H -14.809034 -4.050000 0.000000
H 13.596599 1.950000 0.000000
H 5.455960 7.650000 0.000000
H 10.305702 7.650000 0.000000
H -9.959292 4.350000 0.000000
H -8.746857 6.450000 0.000000
H -4.243524 7.650000 0.000000
H -13.596599 -1.950000 0.000000
H 14.809034 4.050000 0.000000
H -14.809034 -6.450000 0.000000
H 3.031089 7.650000 0.000000
H -1.818653 7.650000 0.000000
H 8.746857 -6.450000 0.000000
H 9.959292 -4.350000 0.000000
H 12.384163 -0.150000 0.000000
H -0.606218 -7.650000 0.000000
H 6.668396 -7.650000 0.000000
H -6.668396 7.650000 0.000000
H -11.171728 2.250000 0.000000
H -3.031089 -7.650000 0.000000
H -12.730573 -7.650000 0.000000
H 11.171728 -2.250000 0.000000
H -5.455960 -7.650000 0.000000
H -10.305702 -7.650000 0.000000
H 0.606218 7.650000 0.000000