298

C 10.305702 -4.550000 0.000000
C 3.031089 3.850000 0.000000
C -20.005187 1.750000 0.000000
C 3.031089 -4.550000 0.000000
C -7.880831 1.750000 0.000000
C 6.668396 -3.850000 0.000000
C -0.606218 0.350000 0.000000
C 12.730573 2.450000 0.000000
C -16.367880 -5.950000 0.000000
C -3.031089 -2.450000 0.000000
C 13.943009 -3.850000 0.000000
C -4.243524 -4.550000 0.000000
C -20.005187 -2.450000 0.000000
C -6.668396 2.450000 0.000000
C 17.580316 6.650000 0.000000
C 5.455960 -1.750000 0.000000
C 7.880831 -1.750000 0.000000
C -16.367880 -1.750000 0.000000
C -18.792751 3.850000 0.000000
C 5.455960 2.450000 0.000000
C -10.305702 0.350000 0.000000
C 3.031089 6.650000 0.000000
C 18.792751 0.350000 0.000000
C 15.155445 -0.350000 0.000000
C 3.031089 -0.350000 0.000000
C -7.880831 5.950000 0.000000
C -7.880831 -2.450000 0.000000
C -21.217622 -0.350000 0.000000
C -10.305702 1.750000 0.000000
C -6.668396 -5.950000 0.000000
C 15.155445 2.450000 0.000000
C -12.730573 5.950000 0.000000
C -3.031089 4.550000 0.000000
C 6.668396 1.750000 0.000000
C 12.730573 3.850000 0.000000
C 0.606218 -0.350000 0.000000
C 11.518138 4.550000 0.000000
C 22.430058 2.450000 0.000000
C -0.606218 -3.850000 0.000000
C -6.668396 3.850000 0.000000
C -20.005187 0.350000 0.000000
C -22.430058 -6.650000 0.000000
C -15.155445 1.750000 0.000000
C -13.943009 2.450000 0.000000
C -5.455960 -6.650000 0.000000
C 13.943009 -2.450000 0.000000
C 20.005187 3.850000 0.000000
C -3.031089 -6.650000 0.000000
C 6.668396 -2.450000 0.000000
C 10.305702 -0.350000 0.000000
C -11.518138 -4.550000 0.000000
C -17.580316 -6.650000 0.000000
C -9.093267 3.850000 0.000000
C -1.818653 2.450000 0.000000
C -9.093267 -1.750000 0.000000
C -21.217622 -4.550000 0.000000
C -21.217622 -1.750000 0.000000
C -12.730573 1.750000 0.000000
C -22.430058 -2.450000 0.000000
C 22.430058 3.850000 0.000000
C -7.880831 -6.650000 0.000000
C 0.606218 3.850000 0.000000
C 7.880831 -0.350000 0.000000
C 9.093267 1.750000 0.000000
C 17.580316 2.450000 0.000000
C -15.155445 -3.850000 0.000000
C -15.155445 0.350000 0.000000
C 21.217622 4.550000 0.000000
C -11.518138 2.450000 0.000000
C -23.642494 -4.550000 0.000000
C -0.606218 -6.650000 0.000000
C 1.818653 0.350000 0.000000
C 1.818653 -6.650000 0.000000
C 11.518138 0.350000 0.000000
C -15.155445 5.950000 0.000000
C 1.818653 -2.450000 0.000000
C 10.305702 2.450000 0.000000
C -5.455960 0.350000 0.000000
C 4.243524 0.350000 0.000000
C 11.518138 -2.450000 0.000000
C 10.305702 -1.750000 0.000000
C -16.367880 -4.550000 0.000000
C -13.943009 -4.550000 0.000000
C 16.367880 1.750000 0.000000
C 11.518138 1.750000 0.000000
C -6.668396 -4.550000 0.000000
C -1.818653 3.850000 0.000000
C 10.305702 -5.950000 0.000000
C 6.668396 4.550000 0.000000
C -6.668396 -0.350000 0.000000
C -7.880831 4.550000 0.000000
C -5.455960 -3.850000 0.000000
C -5.455960 4.550000 0.000000
C 0.606218 -5.950000 0.000000
C 0.606218 6.650000 0.000000
C -10.305702 -3.850000 0.000000
C -1.818653 -5.950000 0.000000
C 20.005187 2.450000 0.000000
C -6.668396 6.650000 0.000000
C 6.668396 5.950000 0.000000
C -17.580316 4.550000 0.000000
C -4.243524 -5.950000 0.000000
C -5.455960 1.750000 0.000000
C 11.518138 -3.850000 0.000000
C 4.243524 -3.850000 0.000000
C 12.730573 -4.550000 0.000000
C 3.031089 -5.950000 0.000000
C -9.093267 -4.550000 0.000000
C 21.217622 5.950000 0.000000
C 22.430058 6.650000 0.000000
C -3.031089 -3.850000 0.000000
C -13.943009 -1.750000 0.000000
C -6.668396 -1.750000 0.000000
C -5.455960 5.950000 0.000000
C 16.367880 -6.650000 0.000000
C 13.943009 5.950000 0.000000
C -20.005187 -6.650000 0.000000
C -11.518138 -5.950000 0.000000
C -13.943009 -0.350000 0.000000
C -16.367880 2.450000 0.000000
C 7.880831 -5.950000 0.000000
C -7.880831 0.350000 0.000000
C -10.305702 -2.450000 0.000000
C 5.455960 3.850000 0.000000
C -10.305702 5.950000 0.000000
C 16.367880 -2.450000 0.000000
C -3.031089 1.750000 0.000000
C 10.305702 3.850000 0.000000
C -9.093267 -5.950000 0.000000
C 18.792751 5.950000 0.000000
C 11.518138 5.950000 0.000000
C 23.642494 4.550000 0.000000
C 5.455960 6.650000 0.000000
C 7.880831 3.850000 0.000000
C -18.792751 -0.350000 0.000000
C -1.818653 -1.750000 0.000000
C -0.606218 1.750000 0.000000
C 18.792751 -3.850000 0.000000
C -11.518138 -0.350000 0.000000
C -17.580316 0.350000 0.000000
C 20.005187 -1.750000 0.000000
C -17.580316 -2.450000 0.000000
C 11.518138 -6.650000 0.000000
C 13.943009 1.750000 0.000000
C -12.730573 4.550000 0.000000
C 16.367880 -3.850000 0.000000
C -15.155445 -2.450000 0.000000
C -12.730573 -2.450000 0.000000
C -1.818653 -4.550000 0.000000
C 15.155445 -5.950000 0.000000
C 9.093267 0.350000 0.000000
C 12.730573 6.650000 0.000000
C -21.217622 -5.950000 0.000000
C 15.155445 -4.550000 0.000000
C 17.580316 -1.750000 0.000000
C 4.243524 4.550000 0.000000
C -17.580316 5.950000 0.000000
C -13.943009 3.850000 0.000000
C -15.155445 4.550000 0.000000
C 13.943009 -6.650000 0.000000
C -18.792751 2.450000 0.000000
C 7.880831 6.650000 0.000000
C -18.792751 -1.750000 0.000000
C 17.580316 3.850000 0.000000
C 18.792751 1.750000 0.000000
C 3.031089 2.450000 0.000000
C 4.243524 -6.650000 0.000000
C 20.005187 -0.350000 0.000000
C 13.943009 4.550000 0.000000
C 21.217622 1.750000 0.000000
C -0.606218 5.950000 0.000000
C -13.943009 -5.950000 0.000000
C -12.730573 -6.650000 0.000000
C -4.243524 2.450000 0.000000
C 6.668396 -6.650000 0.000000
C -1.818653 6.650000 0.000000
C -5.455960 -2.450000 0.000000
C 9.093267 -2.450000 0.000000
C 4.243524 -2.450000 0.000000
C -0.606218 -2.450000 0.000000
C 1.818653 4.550000 0.000000
C 0.606218 -4.550000 0.000000
C -3.031089 5.950000 0.000000
C -20.005187 -3.850000 0.000000
C 12.730573 -0.350000 0.000000
C 21.217622 0.350000 0.000000
C -17.580316 1.750000 0.000000
C -1.818653 -0.350000 0.000000
C 15.155445 3.850000 0.000000
C 4.243524 1.750000 0.000000
C 17.580316 -5.950000 0.000000
C 20.005187 6.650000 0.000000
C 3.031089 -1.750000 0.000000
C 0.606218 2.450000 0.000000
C -22.430058 -3.850000 0.000000
C 5.455960 -4.550000 0.000000
C 0.606218 -1.750000 0.000000
C -23.642494 -5.950000 0.000000
C -13.943009 6.650000 0.000000
C 18.792751 -2.450000 0.000000
C 17.580316 -0.350000 0.000000
C 16.367880 5.950000 0.000000
C 7.880831 2.450000 0.000000
C 9.093267 -6.650000 0.000000
C -4.243524 6.650000 0.000000
C 23.642494 5.950000 0.000000
C -16.367880 6.650000 0.000000
C -4.243524 3.850000 0.000000
C -17.580316 -3.850000 0.000000
C -12.730573 0.350000 0.000000
C -15.155445 -6.650000 0.000000
C -9.093267 -0.350000 0.000000
C -7.880831 -3.850000 0.000000
C -18.792751 -4.550000 0.000000
C -3.031089 0.350000 0.000000
C 4.243524 5.950000 0.000000
C 18.792751 4.550000 0.000000
C -11.518138 6.650000 0.000000
C -0.606218 4.550000 0.000000
C -10.305702 4.550000 0.000000
C 10.305702 6.650000 0.000000
C -16.367880 -0.350000 0.000000
C -11.518138 -1.750000 0.000000
C 12.730573 -5.950000 0.000000
C 9.093267 5.950000 0.000000
C 6.668396 0.350000 0.000000
C 1.818653 5.950000 0.000000
C 12.730573 -1.750000 0.000000
C 15.155445 -1.750000 0.000000
C -9.093267 6.650000 0.000000
C 9.093267 4.550000 0.000000
C -12.730573 -3.850000 0.000000
C 13.943009 0.350000 0.000000
C 5.455960 -0.350000 0.000000
C -4.243524 -1.750000 0.000000
C 1.818653 1.750000 0.000000
C 16.367880 4.550000 0.000000
C -9.093267 2.450000 0.000000
C 5.455960 -5.950000 0.000000
C -11.518138 3.850000 0.000000
C -4.243524 -0.350000 0.000000
C 16.367880 0.350000 0.000000
C 9.093267 -3.850000 0.000000
C 15.155445 6.650000 0.000000
C -16.367880 3.850000 0.000000
C 17.580316 -4.550000 0.000000
C 7.880831 -4.550000 0.000000
C -10.305702 -6.650000 0.000000
C -18.792751 -5.950000 0.000000
C 1.818653 -3.850000 0.000000
H -20.871212 2.250000 0.000000
H 23.296083 1.950000 0.000000
H -22.083648 0.150000 0.000000
H 5.455960 7.650000 0.000000
H 1.818653 -7.650000 0.000000
H -13.943009 7.650000 0.000000
H 12.730573 7.650000 0.000000
H 9.093267 -7.650000 0.000000
H -19.658777 4.350000 0.000000
H -12.730573 -7.650000 0.000000
H 3.031089 7.650000 0.000000
H 13.943009 -7.650000 0.000000
H -24.508519 -6.450000 0.000000
H -17.580316 -7.650000 0.000000
H 11.518138 -7.650000 0.000000
H 7.880831 7.650000 0.000000
H 20.005187 7.650000 0.000000
H 15.155445 7.650000 0.000000
H 6.668396 -7.650000 0.000000
H -0.606218 -7.650000 0.000000
H -7.880831 -7.650000 0.000000
H 17.580316 7.650000 0.000000
H 22.430058 7.650000 0.000000
H 0.606218 7.650000 0.000000
H 16.367880 -7.650000 0.000000
H -5.455960 -7.650000 0.000000
H -6.668396 7.650000 0.000000
H -16.367880 7.650000 0.000000
H 10.305702 7.650000 0.000000
H -18.446341 6.450000 0.000000
H -3.031089 -7.650000 0.000000
H 22.083648 -0.150000 0.000000
H 19.658777 -4.350000 0.000000
H 18.446341 -6.450000 0.000000
H 20.871212 -2.250000 0.000000
H -22.430058 -7.650000 0.000000
H -23.296083 -1.950000 0.000000
H -11.518138 7.650000 0.000000
H 24.508519 4.050000 0.000000
H -1.818653 7.650000 0.000000
H -15.155445 -7.650000 0.000000
H 4.243524 -7.650000 0.000000
H -4.243524 7.650000 0.000000
H -20.005187 -7.650000 0.000000
H -9.093267 7.650000 0.000000
H -24.508519 -4.050000 0.000000
H -10.305702 -7.650000 0.000000
H 24.508519 6.450000 0.000000