42

C -4.243524 -4.550000 0.000000
C 1.818653 4.550000 0.000000
C -3.031089 -3.850000 0.000000
C 1.818653 0.350000 0.000000
C -3.031089 -2.450000 0.000000
C 0.606218 -1.750000 0.000000
C -1.818653 -0.350000 0.000000
C -0.606218 1.750000 0.000000
C 3.031089 6.650000 0.000000
C 4.243524 5.950000 0.000000
C -1.818653 -1.750000 0.000000
C -3.031089 -6.650000 0.000000
C -1.818653 -5.950000 0.000000
C 3.031089 3.850000 0.000000
C 4.243524 4.550000 0.000000
C -0.606218 0.350000 0.000000
C 3.031089 2.450000 0.000000
C 1.818653 1.750000 0.000000
C -1.818653 -4.550000 0.000000
C 0.606218 2.450000 0.000000
C -0.606218 -2.450000 0.000000
C 1.818653 5.950000 0.000000
C 0.606218 -0.350000 0.000000
C -0.606218 -3.850000 0.000000
C -4.243524 -5.950000 0.000000
C 0.606218 3.850000 0.000000
H -3.897114 -1.950000 0.000000
H -2.684679 0.150000 0.000000
H -1.472243 2.250000 0.000000
H 5.109550 4.050000 0.000000
H 0.952628 6.450000 0.000000
H 1.472243 -2.250000 0.000000
H -3.031089 -7.650000 0.000000
H -0.952628 -6.450000 0.000000
H 3.031089 7.650000 0.000000
H 5.109550 6.450000 0.000000
H 2.684679 -0.150000 0.000000
H 3.897114 1.950000 0.000000
H 0.259808 -4.350000 0.000000
H -5.109550 -4.050000 0.000000
H -5.109550 -6.450000 0.000000
H -0.259808 4.350000 0.000000