22

C -2.424871 -1.400000 0.000000
C 0.000000 -2.800000 0.000000
C 2.424871 1.400000 0.000000
C -1.212436 -0.700000 0.000000
C 1.212436 3.500000 0.000000
C 2.424871 2.800000 0.000000
C 1.212436 0.700000 0.000000
C 0.000000 2.800000 0.000000
C -2.424871 -2.800000 0.000000
C -1.212436 -3.500000 0.000000
C 0.000000 1.400000 0.000000
C 0.000000 -1.400000 0.000000
H -1.212436 -4.500000 0.000000
H -0.866025 3.300000 0.000000
H 0.866025 -3.300000 0.000000
H 0.866025 -0.900000 0.000000
H -3.290897 -3.300000 0.000000
H 1.212436 4.500000 0.000000
H 3.290897 3.300000 0.000000
H 3.290897 0.900000 0.000000
H -3.290897 -0.900000 0.000000
H -0.866025 0.900000 0.000000